# generated using pymatgen
data_Zn10Ge(B4Rh9)2
_symmetry_space_group_name_H-M   'P 1'
_cell_length_a   35.47137340
_cell_length_b   35.47137340
_cell_length_c   5.72453818
_cell_angle_alpha   90.00000000
_cell_angle_beta   90.00000000
_cell_angle_gamma   90.00000000
_symmetry_Int_Tables_number   1
_chemical_formula_structural   Zn10Ge(B4Rh9)2
_chemical_formula_sum   'Zn160 Ge16 B128 Rh288'
_cell_volume   7202.71887391
_cell_formula_units_Z   16
loop_
 _symmetry_equiv_pos_site_id
 _symmetry_equiv_pos_as_xyz
  1  'x, y, z'
loop_
 _atom_site_type_symbol
 _atom_site_label
 _atom_site_symmetry_multiplicity
 _atom_site_fract_x
 _atom_site_fract_y
 _atom_site_fract_z
 _atom_site_occupancy
  Zn  Zn0_0  1  0.27502316  0.02502316  0.00000000  1
  Zn  Zn0_1  1  0.27502316  0.02502316  0.50000000  1
  Zn  Zn0_2  1  0.27502316  0.52502316  0.00000000  1
  Zn  Zn0_3  1  0.27502316  0.52502316  0.50000000  1
  Zn  Zn0_4  1  0.77502316  0.02502316  0.00000000  1
  Zn  Zn0_5  1  0.77502316  0.02502316  0.50000000  1
  Zn  Zn0_6  1  0.77502316  0.52502316  0.00000000  1
  Zn  Zn0_7  1  0.77502316  0.52502316  0.50000000  1
  Zn  Zn1_0  1  0.22497684  0.47497684  0.00000000  1
  Zn  Zn1_1  1  0.22497684  0.47497684  0.50000000  1
  Zn  Zn1_2  1  0.22497684  0.97497684  0.00000000  1
  Zn  Zn1_3  1  0.22497684  0.97497684  0.50000000  1
  Zn  Zn1_4  1  0.72497684  0.47497684  0.00000000  1
  Zn  Zn1_5  1  0.72497684  0.47497684  0.50000000  1
  Zn  Zn1_6  1  0.72497684  0.97497684  0.00000000  1
  Zn  Zn1_7  1  0.72497684  0.97497684  0.50000000  1
  Zn  Zn2_0  1  0.02502316  0.22497684  0.00000000  1
  Zn  Zn2_1  1  0.02502316  0.22497684  0.50000000  1
  Zn  Zn2_2  1  0.02502316  0.72497684  0.00000000  1
  Zn  Zn2_3  1  0.02502316  0.72497684  0.50000000  1
  Zn  Zn2_4  1  0.52502316  0.22497684  0.00000000  1
  Zn  Zn2_5  1  0.52502316  0.22497684  0.50000000  1
  Zn  Zn2_6  1  0.52502316  0.72497684  0.00000000  1
  Zn  Zn2_7  1  0.52502316  0.72497684  0.50000000  1
  Zn  Zn3_0  1  0.47497684  0.27502316  0.00000000  1
  Zn  Zn3_1  1  0.47497684  0.27502316  0.50000000  1
  Zn  Zn3_2  1  0.47497684  0.77502316  0.00000000  1
  Zn  Zn3_3  1  0.47497684  0.77502316  0.50000000  1
  Zn  Zn3_4  1  0.97497684  0.27502316  0.00000000  1
  Zn  Zn3_5  1  0.97497684  0.27502316  0.50000000  1
  Zn  Zn3_6  1  0.97497684  0.77502316  0.00000000  1
  Zn  Zn3_7  1  0.97497684  0.77502316  0.50000000  1
  Zn  Zn4_0  1  0.01573835  0.09758122  0.00000000  1
  Zn  Zn4_1  1  0.01573835  0.09758122  0.50000000  1
  Zn  Zn4_2  1  0.01573835  0.59758122  0.00000000  1
  Zn  Zn4_3  1  0.01573835  0.59758122  0.50000000  1
  Zn  Zn4_4  1  0.51573835  0.09758122  0.00000000  1
  Zn  Zn4_5  1  0.51573835  0.09758122  0.50000000  1
  Zn  Zn4_6  1  0.51573835  0.59758122  0.00000000  1
  Zn  Zn4_7  1  0.51573835  0.59758122  0.50000000  1
  Zn  Zn5_0  1  0.48426165  0.40241878  0.00000000  1
  Zn  Zn5_1  1  0.48426165  0.40241878  0.50000000  1
  Zn  Zn5_2  1  0.48426165  0.90241878  0.00000000  1
  Zn  Zn5_3  1  0.48426165  0.90241878  0.50000000  1
  Zn  Zn5_4  1  0.98426164  0.40241878  0.00000000  1
  Zn  Zn5_5  1  0.98426164  0.40241878  0.50000000  1
  Zn  Zn5_6  1  0.98426164  0.90241878  0.00000000  1
  Zn  Zn5_7  1  0.98426164  0.90241878  0.50000000  1
  Zn  Zn6_0  1  0.09758122  0.48426165  0.00000000  1
  Zn  Zn6_1  1  0.09758122  0.48426165  0.50000000  1
  Zn  Zn6_2  1  0.09758122  0.98426164  0.00000000  1
  Zn  Zn6_3  1  0.09758122  0.98426164  0.50000000  1
  Zn  Zn6_4  1  0.59758122  0.48426165  0.00000000  1
  Zn  Zn6_5  1  0.59758122  0.48426165  0.50000000  1
  Zn  Zn6_6  1  0.59758122  0.98426164  0.00000000  1
  Zn  Zn6_7  1  0.59758122  0.98426164  0.50000000  1
  Zn  Zn7_0  1  0.26573835  0.15241878  0.00000000  1
  Zn  Zn7_1  1  0.26573835  0.15241878  0.50000000  1
  Zn  Zn7_2  1  0.26573835  0.65241878  0.00000000  1
  Zn  Zn7_3  1  0.26573835  0.65241878  0.50000000  1
  Zn  Zn7_4  1  0.76573835  0.15241878  0.00000000  1
  Zn  Zn7_5  1  0.76573835  0.15241878  0.50000000  1
  Zn  Zn7_6  1  0.76573835  0.65241878  0.00000000  1
  Zn  Zn7_7  1  0.76573835  0.65241878  0.50000000  1
  Zn  Zn8_0  1  0.40241878  0.01573835  0.00000000  1
  Zn  Zn8_1  1  0.40241878  0.01573835  0.50000000  1
  Zn  Zn8_2  1  0.40241878  0.51573835  0.00000000  1
  Zn  Zn8_3  1  0.40241878  0.51573835  0.50000000  1
  Zn  Zn8_4  1  0.90241878  0.01573835  0.00000000  1
  Zn  Zn8_5  1  0.90241878  0.01573835  0.50000000  1
  Zn  Zn8_6  1  0.90241878  0.51573835  0.00000000  1
  Zn  Zn8_7  1  0.90241878  0.51573835  0.50000000  1
  Zn  Zn9_0  1  0.23426165  0.34758122  0.00000000  1
  Zn  Zn9_1  1  0.23426165  0.34758122  0.50000000  1
  Zn  Zn9_2  1  0.23426165  0.84758122  0.00000000  1
  Zn  Zn9_3  1  0.23426165  0.84758122  0.50000000  1
  Zn  Zn9_4  1  0.73426165  0.34758122  0.00000000  1
  Zn  Zn9_5  1  0.73426165  0.34758122  0.50000000  1
  Zn  Zn9_6  1  0.73426165  0.84758122  0.00000000  1
  Zn  Zn9_7  1  0.73426165  0.84758122  0.50000000  1
  Zn  Zn10_0  1  0.34758122  0.26573835  0.00000000  1
  Zn  Zn10_1  1  0.34758122  0.26573835  0.50000000  1
  Zn  Zn10_2  1  0.34758122  0.76573835  0.00000000  1
  Zn  Zn10_3  1  0.34758122  0.76573835  0.50000000  1
  Zn  Zn10_4  1  0.84758122  0.26573835  0.00000000  1
  Zn  Zn10_5  1  0.84758122  0.26573835  0.50000000  1
  Zn  Zn10_6  1  0.84758122  0.76573835  0.00000000  1
  Zn  Zn10_7  1  0.84758122  0.76573835  0.50000000  1
  Zn  Zn11_0  1  0.15241878  0.23426165  0.00000000  1
  Zn  Zn11_1  1  0.15241878  0.23426165  0.50000000  1
  Zn  Zn11_2  1  0.15241878  0.73426165  0.00000000  1
  Zn  Zn11_3  1  0.15241878  0.73426165  0.50000000  1
  Zn  Zn11_4  1  0.65241878  0.23426165  0.00000000  1
  Zn  Zn11_5  1  0.65241878  0.23426165  0.50000000  1
  Zn  Zn11_6  1  0.65241878  0.73426165  0.00000000  1
  Zn  Zn11_7  1  0.65241878  0.73426165  0.50000000  1
  Zn  Zn12_0  1  0.10663197  0.35663196  0.00000000  1
  Zn  Zn12_1  1  0.10663197  0.35663196  0.50000000  1
  Zn  Zn12_2  1  0.10663197  0.85663196  0.00000000  1
  Zn  Zn12_3  1  0.10663197  0.85663196  0.50000000  1
  Zn  Zn12_4  1  0.60663196  0.35663196  0.00000000  1
  Zn  Zn12_5  1  0.60663196  0.35663196  0.50000000  1
  Zn  Zn12_6  1  0.60663196  0.85663196  0.00000000  1
  Zn  Zn12_7  1  0.60663196  0.85663196  0.50000000  1
  Zn  Zn13_0  1  0.39336804  0.14336804  0.00000000  1
  Zn  Zn13_1  1  0.39336804  0.14336804  0.50000000  1
  Zn  Zn13_2  1  0.39336804  0.64336804  0.00000000  1
  Zn  Zn13_3  1  0.39336804  0.64336804  0.50000000  1
  Zn  Zn13_4  1  0.89336803  0.14336804  0.00000000  1
  Zn  Zn13_5  1  0.89336803  0.14336804  0.50000000  1
  Zn  Zn13_6  1  0.89336803  0.64336804  0.00000000  1
  Zn  Zn13_7  1  0.89336803  0.64336804  0.50000000  1
  Zn  Zn14_0  1  0.35663196  0.39336804  0.00000000  1
  Zn  Zn14_1  1  0.35663196  0.39336804  0.50000000  1
  Zn  Zn14_2  1  0.35663196  0.89336803  0.00000000  1
  Zn  Zn14_3  1  0.35663196  0.89336803  0.50000000  1
  Zn  Zn14_4  1  0.85663196  0.39336804  0.00000000  1
  Zn  Zn14_5  1  0.85663196  0.39336804  0.50000000  1
  Zn  Zn14_6  1  0.85663196  0.89336803  0.00000000  1
  Zn  Zn14_7  1  0.85663196  0.89336803  0.50000000  1
  Zn  Zn15_0  1  0.14336804  0.10663197  0.00000000  1
  Zn  Zn15_1  1  0.14336804  0.10663197  0.50000000  1
  Zn  Zn15_2  1  0.14336804  0.60663196  0.00000000  1
  Zn  Zn15_3  1  0.14336804  0.60663196  0.50000000  1
  Zn  Zn15_4  1  0.64336804  0.10663197  0.00000000  1
  Zn  Zn15_5  1  0.64336804  0.10663197  0.50000000  1
  Zn  Zn15_6  1  0.64336804  0.60663196  0.00000000  1
  Zn  Zn15_7  1  0.64336804  0.60663196  0.50000000  1
  Zn  Zn16_0  1  0.33523973  0.08523973  0.00000000  1
  Zn  Zn16_1  1  0.33523973  0.08523973  0.50000000  1
  Zn  Zn16_2  1  0.33523973  0.58523973  0.00000000  1
  Zn  Zn16_3  1  0.33523973  0.58523973  0.50000000  1
  Zn  Zn16_4  1  0.83523973  0.08523973  0.00000000  1
  Zn  Zn16_5  1  0.83523973  0.08523973  0.50000000  1
  Zn  Zn16_6  1  0.83523973  0.58523973  0.00000000  1
  Zn  Zn16_7  1  0.83523973  0.58523973  0.50000000  1
  Zn  Zn17_0  1  0.16476027  0.41476026  0.00000000  1
  Zn  Zn17_1  1  0.16476027  0.41476026  0.50000000  1
  Zn  Zn17_2  1  0.16476027  0.91476026  0.00000000  1
  Zn  Zn17_3  1  0.16476027  0.91476026  0.50000000  1
  Zn  Zn17_4  1  0.66476026  0.41476026  0.00000000  1
  Zn  Zn17_5  1  0.66476026  0.41476026  0.50000000  1
  Zn  Zn17_6  1  0.66476026  0.91476026  0.00000000  1
  Zn  Zn17_7  1  0.66476026  0.91476026  0.50000000  1
  Zn  Zn18_0  1  0.08523973  0.16476027  0.00000000  1
  Zn  Zn18_1  1  0.08523973  0.16476027  0.50000000  1
  Zn  Zn18_2  1  0.08523973  0.66476026  0.00000000  1
  Zn  Zn18_3  1  0.08523973  0.66476026  0.50000000  1
  Zn  Zn18_4  1  0.58523973  0.16476027  0.00000000  1
  Zn  Zn18_5  1  0.58523973  0.16476027  0.50000000  1
  Zn  Zn18_6  1  0.58523973  0.66476026  0.00000000  1
  Zn  Zn18_7  1  0.58523973  0.66476026  0.50000000  1
  Zn  Zn19_0  1  0.41476026  0.33523973  0.00000000  1
  Zn  Zn19_1  1  0.41476026  0.33523973  0.50000000  1
  Zn  Zn19_2  1  0.41476026  0.83523973  0.00000000  1
  Zn  Zn19_3  1  0.41476026  0.83523973  0.50000000  1
  Zn  Zn19_4  1  0.91476026  0.33523973  0.00000000  1
  Zn  Zn19_5  1  0.91476026  0.33523973  0.50000000  1
  Zn  Zn19_6  1  0.91476026  0.83523973  0.00000000  1
  Zn  Zn19_7  1  0.91476026  0.83523973  0.50000000  1
  Ge  Ge0_0  1  0.00000000  0.00000000  0.00000000  1
  Ge  Ge0_1  1  0.00000000  0.00000000  0.50000000  1
  Ge  Ge0_2  1  0.00000000  0.50000000  0.00000000  1
  Ge  Ge0_3  1  0.00000000  0.50000000  0.50000000  1
  Ge  Ge0_4  1  0.50000000  0.00000000  0.00000000  1
  Ge  Ge0_5  1  0.50000000  0.00000000  0.50000000  1
  Ge  Ge0_6  1  0.50000000  0.50000000  0.00000000  1
  Ge  Ge0_7  1  0.50000000  0.50000000  0.50000000  1
  Ge  Ge1_0  1  0.25000000  0.25000000  0.00000000  1
  Ge  Ge1_1  1  0.25000000  0.25000000  0.50000000  1
  Ge  Ge1_2  1  0.25000000  0.75000000  0.00000000  1
  Ge  Ge1_3  1  0.25000000  0.75000000  0.50000000  1
  Ge  Ge1_4  1  0.75000000  0.25000000  0.00000000  1
  Ge  Ge1_5  1  0.75000000  0.25000000  0.50000000  1
  Ge  Ge1_6  1  0.75000000  0.75000000  0.00000000  1
  Ge  Ge1_7  1  0.75000000  0.75000000  0.50000000  1
  B  B0_0  1  0.16781155  0.01915760  0.00000000  1
  B  B0_1  1  0.16781155  0.01915760  0.50000000  1
  B  B0_2  1  0.16781155  0.51915760  0.00000000  1
  B  B0_3  1  0.16781155  0.51915760  0.50000000  1
  B  B0_4  1  0.66781155  0.01915760  0.00000000  1
  B  B0_5  1  0.66781155  0.01915760  0.50000000  1
  B  B0_6  1  0.66781155  0.51915760  0.00000000  1
  B  B0_7  1  0.66781155  0.51915760  0.50000000  1
  B  B1_0  1  0.33218845  0.48084239  0.00000000  1
  B  B1_1  1  0.33218845  0.48084239  0.50000000  1
  B  B1_2  1  0.33218845  0.98084239  0.00000000  1
  B  B1_3  1  0.33218845  0.98084239  0.50000000  1
  B  B1_4  1  0.83218845  0.48084239  0.00000000  1
  B  B1_5  1  0.83218845  0.48084239  0.50000000  1
  B  B1_6  1  0.83218845  0.98084239  0.00000000  1
  B  B1_7  1  0.83218845  0.98084239  0.50000000  1
  B  B2_0  1  0.01915760  0.33218845  0.00000000  1
  B  B2_1  1  0.01915760  0.33218845  0.50000000  1
  B  B2_2  1  0.01915760  0.83218845  0.00000000  1
  B  B2_3  1  0.01915760  0.83218845  0.50000000  1
  B  B2_4  1  0.51915760  0.33218845  0.00000000  1
  B  B2_5  1  0.51915760  0.33218845  0.50000000  1
  B  B2_6  1  0.51915760  0.83218845  0.00000000  1
  B  B2_7  1  0.51915760  0.83218845  0.50000000  1
  B  B3_0  1  0.41781155  0.23084240  0.00000000  1
  B  B3_1  1  0.41781155  0.23084240  0.50000000  1
  B  B3_2  1  0.41781155  0.73084240  0.00000000  1
  B  B3_3  1  0.41781155  0.73084240  0.50000000  1
  B  B3_4  1  0.91781155  0.23084240  0.00000000  1
  B  B3_5  1  0.91781155  0.23084240  0.50000000  1
  B  B3_6  1  0.91781155  0.73084240  0.00000000  1
  B  B3_7  1  0.91781155  0.73084240  0.50000000  1
  B  B4_0  1  0.48084239  0.16781155  0.00000000  1
  B  B4_1  1  0.48084239  0.16781155  0.50000000  1
  B  B4_2  1  0.48084239  0.66781155  0.00000000  1
  B  B4_3  1  0.48084239  0.66781155  0.50000000  1
  B  B4_4  1  0.98084239  0.16781155  0.00000000  1
  B  B4_5  1  0.98084239  0.16781155  0.50000000  1
  B  B4_6  1  0.98084239  0.66781155  0.00000000  1
  B  B4_7  1  0.98084239  0.66781155  0.50000000  1
  B  B5_0  1  0.08218845  0.26915761  0.00000000  1
  B  B5_1  1  0.08218845  0.26915761  0.50000000  1
  B  B5_2  1  0.08218845  0.76915760  0.00000000  1
  B  B5_3  1  0.08218845  0.76915760  0.50000000  1
  B  B5_4  1  0.58218845  0.26915761  0.00000000  1
  B  B5_5  1  0.58218845  0.26915761  0.50000000  1
  B  B5_6  1  0.58218845  0.76915760  0.00000000  1
  B  B5_7  1  0.58218845  0.76915760  0.50000000  1
  B  B6_0  1  0.26915761  0.41781155  0.00000000  1
  B  B6_1  1  0.26915761  0.41781155  0.50000000  1
  B  B6_2  1  0.26915761  0.91781155  0.00000000  1
  B  B6_3  1  0.26915761  0.91781155  0.50000000  1
  B  B6_4  1  0.76915760  0.41781155  0.00000000  1
  B  B6_5  1  0.76915760  0.41781155  0.50000000  1
  B  B6_6  1  0.76915760  0.91781155  0.00000000  1
  B  B6_7  1  0.76915760  0.91781155  0.50000000  1
  B  B7_0  1  0.23084240  0.08218845  0.00000000  1
  B  B7_1  1  0.23084240  0.08218845  0.50000000  1
  B  B7_2  1  0.23084240  0.58218845  0.00000000  1
  B  B7_3  1  0.23084240  0.58218845  0.50000000  1
  B  B7_4  1  0.73084240  0.08218845  0.00000000  1
  B  B7_5  1  0.73084240  0.08218845  0.50000000  1
  B  B7_6  1  0.73084240  0.58218845  0.00000000  1
  B  B7_7  1  0.73084240  0.58218845  0.50000000  1
  B  B8_0  1  0.08429174  0.06098448  0.00000000  1
  B  B8_1  1  0.08429174  0.06098448  0.50000000  1
  B  B8_2  1  0.08429174  0.56098448  0.00000000  1
  B  B8_3  1  0.08429174  0.56098448  0.50000000  1
  B  B8_4  1  0.58429174  0.06098448  0.00000000  1
  B  B8_5  1  0.58429174  0.06098448  0.50000000  1
  B  B8_6  1  0.58429174  0.56098448  0.00000000  1
  B  B8_7  1  0.58429174  0.56098448  0.50000000  1
  B  B9_0  1  0.41570826  0.43901552  0.00000000  1
  B  B9_1  1  0.41570826  0.43901552  0.50000000  1
  B  B9_2  1  0.41570826  0.93901552  0.00000000  1
  B  B9_3  1  0.41570826  0.93901552  0.50000000  1
  B  B9_4  1  0.91570826  0.43901552  0.00000000  1
  B  B9_5  1  0.91570826  0.43901552  0.50000000  1
  B  B9_6  1  0.91570826  0.93901552  0.00000000  1
  B  B9_7  1  0.91570826  0.93901552  0.50000000  1
  B  B10_0  1  0.06098448  0.41570826  0.00000000  1
  B  B10_1  1  0.06098448  0.41570826  0.50000000  1
  B  B10_2  1  0.06098448  0.91570826  0.00000000  1
  B  B10_3  1  0.06098448  0.91570826  0.50000000  1
  B  B10_4  1  0.56098448  0.41570826  0.00000000  1
  B  B10_5  1  0.56098448  0.41570826  0.50000000  1
  B  B10_6  1  0.56098448  0.91570826  0.00000000  1
  B  B10_7  1  0.56098448  0.91570826  0.50000000  1
  B  B11_0  1  0.33429174  0.18901552  0.00000000  1
  B  B11_1  1  0.33429174  0.18901552  0.50000000  1
  B  B11_2  1  0.33429174  0.68901552  0.00000000  1
  B  B11_3  1  0.33429174  0.68901552  0.50000000  1
  B  B11_4  1  0.83429174  0.18901552  0.00000000  1
  B  B11_5  1  0.83429174  0.18901552  0.50000000  1
  B  B11_6  1  0.83429174  0.68901552  0.00000000  1
  B  B11_7  1  0.83429174  0.68901552  0.50000000  1
  B  B12_0  1  0.43901552  0.08429174  0.00000000  1
  B  B12_1  1  0.43901552  0.08429174  0.50000000  1
  B  B12_2  1  0.43901552  0.58429174  0.00000000  1
  B  B12_3  1  0.43901552  0.58429174  0.50000000  1
  B  B12_4  1  0.93901552  0.08429174  0.00000000  1
  B  B12_5  1  0.93901552  0.08429174  0.50000000  1
  B  B12_6  1  0.93901552  0.58429174  0.00000000  1
  B  B12_7  1  0.93901552  0.58429174  0.50000000  1
  B  B13_0  1  0.16570826  0.31098448  0.00000000  1
  B  B13_1  1  0.16570826  0.31098448  0.50000000  1
  B  B13_2  1  0.16570826  0.81098448  0.00000000  1
  B  B13_3  1  0.16570826  0.81098448  0.50000000  1
  B  B13_4  1  0.66570826  0.31098448  0.00000000  1
  B  B13_5  1  0.66570826  0.31098448  0.50000000  1
  B  B13_6  1  0.66570826  0.81098448  0.00000000  1
  B  B13_7  1  0.66570826  0.81098448  0.50000000  1
  B  B14_0  1  0.31098448  0.33429174  0.00000000  1
  B  B14_1  1  0.31098448  0.33429174  0.50000000  1
  B  B14_2  1  0.31098448  0.83429174  0.00000000  1
  B  B14_3  1  0.31098448  0.83429174  0.50000000  1
  B  B14_4  1  0.81098448  0.33429174  0.00000000  1
  B  B14_5  1  0.81098448  0.33429174  0.50000000  1
  B  B14_6  1  0.81098448  0.83429174  0.00000000  1
  B  B14_7  1  0.81098448  0.83429174  0.50000000  1
  B  B15_0  1  0.18901552  0.16570826  0.00000000  1
  B  B15_1  1  0.18901552  0.16570826  0.50000000  1
  B  B15_2  1  0.18901552  0.66570826  0.00000000  1
  B  B15_3  1  0.18901552  0.66570826  0.50000000  1
  B  B15_4  1  0.68901552  0.16570826  0.00000000  1
  B  B15_5  1  0.68901552  0.16570826  0.50000000  1
  B  B15_6  1  0.68901552  0.66570826  0.00000000  1
  B  B15_7  1  0.68901552  0.66570826  0.50000000  1
  Rh  Rh0_0  1  0.12938828  0.04503711  0.25000000  1
  Rh  Rh0_1  1  0.12938828  0.04503711  0.75000000  1
  Rh  Rh0_2  1  0.12938828  0.54503711  0.25000000  1
  Rh  Rh0_3  1  0.12938828  0.54503711  0.75000000  1
  Rh  Rh0_4  1  0.62938828  0.04503711  0.25000000  1
  Rh  Rh0_5  1  0.62938828  0.04503711  0.75000000  1
  Rh  Rh0_6  1  0.62938828  0.54503711  0.25000000  1
  Rh  Rh0_7  1  0.62938828  0.54503711  0.75000000  1
  Rh  Rh1_0  1  0.37061172  0.45496290  0.25000000  1
  Rh  Rh1_1  1  0.37061172  0.45496290  0.75000000  1
  Rh  Rh1_2  1  0.37061172  0.95496289  0.25000000  1
  Rh  Rh1_3  1  0.37061172  0.95496289  0.75000000  1
  Rh  Rh1_4  1  0.87061172  0.45496290  0.25000000  1
  Rh  Rh1_5  1  0.87061172  0.45496290  0.75000000  1
  Rh  Rh1_6  1  0.87061172  0.95496289  0.25000000  1
  Rh  Rh1_7  1  0.87061172  0.95496289  0.75000000  1
  Rh  Rh2_0  1  0.04503711  0.37061172  0.25000000  1
  Rh  Rh2_1  1  0.04503711  0.37061172  0.75000000  1
  Rh  Rh2_2  1  0.04503711  0.87061172  0.25000000  1
  Rh  Rh2_3  1  0.04503711  0.87061172  0.75000000  1
  Rh  Rh2_4  1  0.54503711  0.37061172  0.25000000  1
  Rh  Rh2_5  1  0.54503711  0.37061172  0.75000000  1
  Rh  Rh2_6  1  0.54503711  0.87061172  0.25000000  1
  Rh  Rh2_7  1  0.54503711  0.87061172  0.75000000  1
  Rh  Rh3_0  1  0.37938828  0.20496290  0.25000000  1
  Rh  Rh3_1  1  0.37938828  0.20496290  0.75000000  1
  Rh  Rh3_2  1  0.37938828  0.70496289  0.25000000  1
  Rh  Rh3_3  1  0.37938828  0.70496289  0.75000000  1
  Rh  Rh3_4  1  0.87938828  0.20496290  0.25000000  1
  Rh  Rh3_5  1  0.87938828  0.20496290  0.75000000  1
  Rh  Rh3_6  1  0.87938828  0.70496289  0.25000000  1
  Rh  Rh3_7  1  0.87938828  0.70496289  0.75000000  1
  Rh  Rh4_0  1  0.45496290  0.12938828  0.25000000  1
  Rh  Rh4_1  1  0.45496290  0.12938828  0.75000000  1
  Rh  Rh4_2  1  0.45496290  0.62938828  0.25000000  1
  Rh  Rh4_3  1  0.45496290  0.62938828  0.75000000  1
  Rh  Rh4_4  1  0.95496289  0.12938828  0.25000000  1
  Rh  Rh4_5  1  0.95496289  0.12938828  0.75000000  1
  Rh  Rh4_6  1  0.95496289  0.62938828  0.25000000  1
  Rh  Rh4_7  1  0.95496289  0.62938828  0.75000000  1
  Rh  Rh5_0  1  0.12061171  0.29503711  0.25000000  1
  Rh  Rh5_1  1  0.12061171  0.29503711  0.75000000  1
  Rh  Rh5_2  1  0.12061171  0.79503711  0.25000000  1
  Rh  Rh5_3  1  0.12061171  0.79503711  0.75000000  1
  Rh  Rh5_4  1  0.62061171  0.29503711  0.25000000  1
  Rh  Rh5_5  1  0.62061171  0.29503711  0.75000000  1
  Rh  Rh5_6  1  0.62061171  0.79503711  0.25000000  1
  Rh  Rh5_7  1  0.62061171  0.79503711  0.75000000  1
  Rh  Rh6_0  1  0.29503711  0.37938828  0.25000000  1
  Rh  Rh6_1  1  0.29503711  0.37938828  0.75000000  1
  Rh  Rh6_2  1  0.29503711  0.87938828  0.25000000  1
  Rh  Rh6_3  1  0.29503711  0.87938828  0.75000000  1
  Rh  Rh6_4  1  0.79503711  0.37938828  0.25000000  1
  Rh  Rh6_5  1  0.79503711  0.37938828  0.75000000  1
  Rh  Rh6_6  1  0.79503711  0.87938828  0.25000000  1
  Rh  Rh6_7  1  0.79503711  0.87938828  0.75000000  1
  Rh  Rh7_0  1  0.20496290  0.12061171  0.25000000  1
  Rh  Rh7_1  1  0.20496290  0.12061171  0.75000000  1
  Rh  Rh7_2  1  0.20496290  0.62061171  0.25000000  1
  Rh  Rh7_3  1  0.20496290  0.62061171  0.75000000  1
  Rh  Rh7_4  1  0.70496289  0.12061171  0.25000000  1
  Rh  Rh7_5  1  0.70496289  0.12061171  0.75000000  1
  Rh  Rh7_6  1  0.70496289  0.62061171  0.25000000  1
  Rh  Rh7_7  1  0.70496289  0.62061171  0.75000000  1
  Rh  Rh8_0  1  0.02427386  0.16351850  0.25000000  1
  Rh  Rh8_1  1  0.02427386  0.16351850  0.75000000  1
  Rh  Rh8_2  1  0.02427386  0.66351850  0.25000000  1
  Rh  Rh8_3  1  0.02427386  0.66351850  0.75000000  1
  Rh  Rh8_4  1  0.52427386  0.16351850  0.25000000  1
  Rh  Rh8_5  1  0.52427386  0.16351850  0.75000000  1
  Rh  Rh8_6  1  0.52427386  0.66351850  0.25000000  1
  Rh  Rh8_7  1  0.52427386  0.66351850  0.75000000  1
  Rh  Rh9_0  1  0.47572613  0.33648150  0.25000000  1
  Rh  Rh9_1  1  0.47572613  0.33648150  0.75000000  1
  Rh  Rh9_2  1  0.47572613  0.83648149  0.25000000  1
  Rh  Rh9_3  1  0.47572613  0.83648149  0.75000000  1
  Rh  Rh9_4  1  0.97572613  0.33648150  0.25000000  1
  Rh  Rh9_5  1  0.97572613  0.33648150  0.75000000  1
  Rh  Rh9_6  1  0.97572613  0.83648149  0.25000000  1
  Rh  Rh9_7  1  0.97572613  0.83648149  0.75000000  1
  Rh  Rh10_0  1  0.16351850  0.47572613  0.25000000  1
  Rh  Rh10_1  1  0.16351850  0.47572613  0.75000000  1
  Rh  Rh10_2  1  0.16351850  0.97572613  0.25000000  1
  Rh  Rh10_3  1  0.16351850  0.97572613  0.75000000  1
  Rh  Rh10_4  1  0.66351850  0.47572613  0.25000000  1
  Rh  Rh10_5  1  0.66351850  0.47572613  0.75000000  1
  Rh  Rh10_6  1  0.66351850  0.97572613  0.25000000  1
  Rh  Rh10_7  1  0.66351850  0.97572613  0.75000000  1
  Rh  Rh11_0  1  0.27427386  0.08648149  0.25000000  1
  Rh  Rh11_1  1  0.27427386  0.08648149  0.75000000  1
  Rh  Rh11_2  1  0.27427386  0.58648150  0.25000000  1
  Rh  Rh11_3  1  0.27427386  0.58648150  0.75000000  1
  Rh  Rh11_4  1  0.77427386  0.08648149  0.25000000  1
  Rh  Rh11_5  1  0.77427386  0.08648149  0.75000000  1
  Rh  Rh11_6  1  0.77427386  0.58648150  0.25000000  1
  Rh  Rh11_7  1  0.77427386  0.58648150  0.75000000  1
  Rh  Rh12_0  1  0.33648150  0.02427386  0.25000000  1
  Rh  Rh12_1  1  0.33648150  0.02427386  0.75000000  1
  Rh  Rh12_2  1  0.33648150  0.52427386  0.25000000  1
  Rh  Rh12_3  1  0.33648150  0.52427386  0.75000000  1
  Rh  Rh12_4  1  0.83648149  0.02427386  0.25000000  1
  Rh  Rh12_5  1  0.83648149  0.02427386  0.75000000  1
  Rh  Rh12_6  1  0.83648149  0.52427386  0.25000000  1
  Rh  Rh12_7  1  0.83648149  0.52427386  0.75000000  1
  Rh  Rh13_0  1  0.22572613  0.41351850  0.25000000  1
  Rh  Rh13_1  1  0.22572613  0.41351850  0.75000000  1
  Rh  Rh13_2  1  0.22572613  0.91351850  0.25000000  1
  Rh  Rh13_3  1  0.22572613  0.91351850  0.75000000  1
  Rh  Rh13_4  1  0.72572613  0.41351850  0.25000000  1
  Rh  Rh13_5  1  0.72572613  0.41351850  0.75000000  1
  Rh  Rh13_6  1  0.72572613  0.91351850  0.25000000  1
  Rh  Rh13_7  1  0.72572613  0.91351850  0.75000000  1
  Rh  Rh14_0  1  0.41351850  0.27427386  0.25000000  1
  Rh  Rh14_1  1  0.41351850  0.27427386  0.75000000  1
  Rh  Rh14_2  1  0.41351850  0.77427386  0.25000000  1
  Rh  Rh14_3  1  0.41351850  0.77427386  0.75000000  1
  Rh  Rh14_4  1  0.91351850  0.27427386  0.25000000  1
  Rh  Rh14_5  1  0.91351850  0.27427386  0.75000000  1
  Rh  Rh14_6  1  0.91351850  0.77427386  0.25000000  1
  Rh  Rh14_7  1  0.91351850  0.77427386  0.75000000  1
  Rh  Rh15_0  1  0.08648149  0.22572613  0.25000000  1
  Rh  Rh15_1  1  0.08648149  0.22572613  0.75000000  1
  Rh  Rh15_2  1  0.08648149  0.72572613  0.25000000  1
  Rh  Rh15_3  1  0.08648149  0.72572613  0.75000000  1
  Rh  Rh15_4  1  0.58648150  0.22572613  0.25000000  1
  Rh  Rh15_5  1  0.58648150  0.22572613  0.75000000  1
  Rh  Rh15_6  1  0.58648150  0.72572613  0.25000000  1
  Rh  Rh15_7  1  0.58648150  0.72572613  0.75000000  1
  Rh  Rh16_0  1  0.07861102  0.10406810  0.25000000  1
  Rh  Rh16_1  1  0.07861102  0.10406810  0.75000000  1
  Rh  Rh16_2  1  0.07861102  0.60406810  0.25000000  1
  Rh  Rh16_3  1  0.07861102  0.60406810  0.75000000  1
  Rh  Rh16_4  1  0.57861102  0.10406810  0.25000000  1
  Rh  Rh16_5  1  0.57861102  0.10406810  0.75000000  1
  Rh  Rh16_6  1  0.57861102  0.60406810  0.25000000  1
  Rh  Rh16_7  1  0.57861102  0.60406810  0.75000000  1
  Rh  Rh17_0  1  0.42138898  0.39593190  0.25000000  1
  Rh  Rh17_1  1  0.42138898  0.39593190  0.75000000  1
  Rh  Rh17_2  1  0.42138898  0.89593190  0.25000000  1
  Rh  Rh17_3  1  0.42138898  0.89593190  0.75000000  1
  Rh  Rh17_4  1  0.92138898  0.39593190  0.25000000  1
  Rh  Rh17_5  1  0.92138898  0.39593190  0.75000000  1
  Rh  Rh17_6  1  0.92138898  0.89593190  0.25000000  1
  Rh  Rh17_7  1  0.92138898  0.89593190  0.75000000  1
  Rh  Rh18_0  1  0.10406810  0.42138898  0.25000000  1
  Rh  Rh18_1  1  0.10406810  0.42138898  0.75000000  1
  Rh  Rh18_2  1  0.10406810  0.92138898  0.25000000  1
  Rh  Rh18_3  1  0.10406810  0.92138898  0.75000000  1
  Rh  Rh18_4  1  0.60406810  0.42138898  0.25000000  1
  Rh  Rh18_5  1  0.60406810  0.42138898  0.75000000  1
  Rh  Rh18_6  1  0.60406810  0.92138898  0.25000000  1
  Rh  Rh18_7  1  0.60406810  0.92138898  0.75000000  1
  Rh  Rh19_0  1  0.32861102  0.14593190  0.25000000  1
  Rh  Rh19_1  1  0.32861102  0.14593190  0.75000000  1
  Rh  Rh19_2  1  0.32861102  0.64593190  0.25000000  1
  Rh  Rh19_3  1  0.32861102  0.64593190  0.75000000  1
  Rh  Rh19_4  1  0.82861102  0.14593190  0.25000000  1
  Rh  Rh19_5  1  0.82861102  0.14593190  0.75000000  1
  Rh  Rh19_6  1  0.82861102  0.64593190  0.25000000  1
  Rh  Rh19_7  1  0.82861102  0.64593190  0.75000000  1
  Rh  Rh20_0  1  0.39593190  0.07861102  0.25000000  1
  Rh  Rh20_1  1  0.39593190  0.07861102  0.75000000  1
  Rh  Rh20_2  1  0.39593190  0.57861102  0.25000000  1
  Rh  Rh20_3  1  0.39593190  0.57861102  0.75000000  1
  Rh  Rh20_4  1  0.89593190  0.07861102  0.25000000  1
  Rh  Rh20_5  1  0.89593190  0.07861102  0.75000000  1
  Rh  Rh20_6  1  0.89593190  0.57861102  0.25000000  1
  Rh  Rh20_7  1  0.89593190  0.57861102  0.75000000  1
  Rh  Rh21_0  1  0.17138898  0.35406810  0.25000000  1
  Rh  Rh21_1  1  0.17138898  0.35406810  0.75000000  1
  Rh  Rh21_2  1  0.17138898  0.85406810  0.25000000  1
  Rh  Rh21_3  1  0.17138898  0.85406810  0.75000000  1
  Rh  Rh21_4  1  0.67138898  0.35406810  0.25000000  1
  Rh  Rh21_5  1  0.67138898  0.35406810  0.75000000  1
  Rh  Rh21_6  1  0.67138898  0.85406810  0.25000000  1
  Rh  Rh21_7  1  0.67138898  0.85406810  0.75000000  1
  Rh  Rh22_0  1  0.35406810  0.32861102  0.25000000  1
  Rh  Rh22_1  1  0.35406810  0.32861102  0.75000000  1
  Rh  Rh22_2  1  0.35406810  0.82861102  0.25000000  1
  Rh  Rh22_3  1  0.35406810  0.82861102  0.75000000  1
  Rh  Rh22_4  1  0.85406810  0.32861102  0.25000000  1
  Rh  Rh22_5  1  0.85406810  0.32861102  0.75000000  1
  Rh  Rh22_6  1  0.85406810  0.82861102  0.25000000  1
  Rh  Rh22_7  1  0.85406810  0.82861102  0.75000000  1
  Rh  Rh23_0  1  0.14593190  0.17138898  0.25000000  1
  Rh  Rh23_1  1  0.14593190  0.17138898  0.75000000  1
  Rh  Rh23_2  1  0.14593190  0.67138898  0.25000000  1
  Rh  Rh23_3  1  0.14593190  0.67138898  0.75000000  1
  Rh  Rh23_4  1  0.64593190  0.17138898  0.25000000  1
  Rh  Rh23_5  1  0.64593190  0.17138898  0.75000000  1
  Rh  Rh23_6  1  0.64593190  0.67138898  0.25000000  1
  Rh  Rh23_7  1  0.64593190  0.67138898  0.75000000  1
  Rh  Rh24_0  1  0.05134216  0.02950783  0.25000000  1
  Rh  Rh24_1  1  0.05134216  0.02950783  0.75000000  1
  Rh  Rh24_2  1  0.05134216  0.52950783  0.25000000  1
  Rh  Rh24_3  1  0.05134216  0.52950783  0.75000000  1
  Rh  Rh24_4  1  0.55134216  0.02950783  0.25000000  1
  Rh  Rh24_5  1  0.55134216  0.02950783  0.75000000  1
  Rh  Rh24_6  1  0.55134216  0.52950783  0.25000000  1
  Rh  Rh24_7  1  0.55134216  0.52950783  0.75000000  1
  Rh  Rh25_0  1  0.44865784  0.47049217  0.25000000  1
  Rh  Rh25_1  1  0.44865784  0.47049217  0.75000000  1
  Rh  Rh25_2  1  0.44865784  0.97049217  0.25000000  1
  Rh  Rh25_3  1  0.44865784  0.97049217  0.75000000  1
  Rh  Rh25_4  1  0.94865784  0.47049217  0.25000000  1
  Rh  Rh25_5  1  0.94865784  0.47049217  0.75000000  1
  Rh  Rh25_6  1  0.94865784  0.97049217  0.25000000  1
  Rh  Rh25_7  1  0.94865784  0.97049217  0.75000000  1
  Rh  Rh26_0  1  0.02950783  0.44865784  0.25000000  1
  Rh  Rh26_1  1  0.02950783  0.44865784  0.75000000  1
  Rh  Rh26_2  1  0.02950783  0.94865784  0.25000000  1
  Rh  Rh26_3  1  0.02950783  0.94865784  0.75000000  1
  Rh  Rh26_4  1  0.52950783  0.44865784  0.25000000  1
  Rh  Rh26_5  1  0.52950783  0.44865784  0.75000000  1
  Rh  Rh26_6  1  0.52950783  0.94865784  0.25000000  1
  Rh  Rh26_7  1  0.52950783  0.94865784  0.75000000  1
  Rh  Rh27_0  1  0.30134216  0.22049217  0.25000000  1
  Rh  Rh27_1  1  0.30134216  0.22049217  0.75000000  1
  Rh  Rh27_2  1  0.30134216  0.72049216  0.25000000  1
  Rh  Rh27_3  1  0.30134216  0.72049216  0.75000000  1
  Rh  Rh27_4  1  0.80134216  0.22049217  0.25000000  1
  Rh  Rh27_5  1  0.80134216  0.22049217  0.75000000  1
  Rh  Rh27_6  1  0.80134216  0.72049216  0.25000000  1
  Rh  Rh27_7  1  0.80134216  0.72049216  0.75000000  1
  Rh  Rh28_0  1  0.47049217  0.05134216  0.25000000  1
  Rh  Rh28_1  1  0.47049217  0.05134216  0.75000000  1
  Rh  Rh28_2  1  0.47049217  0.55134216  0.25000000  1
  Rh  Rh28_3  1  0.47049217  0.55134216  0.75000000  1
  Rh  Rh28_4  1  0.97049217  0.05134216  0.25000000  1
  Rh  Rh28_5  1  0.97049217  0.05134216  0.75000000  1
  Rh  Rh28_6  1  0.97049217  0.55134216  0.25000000  1
  Rh  Rh28_7  1  0.97049217  0.55134216  0.75000000  1
  Rh  Rh29_0  1  0.19865784  0.27950783  0.25000000  1
  Rh  Rh29_1  1  0.19865784  0.27950783  0.75000000  1
  Rh  Rh29_2  1  0.19865784  0.77950783  0.25000000  1
  Rh  Rh29_3  1  0.19865784  0.77950783  0.75000000  1
  Rh  Rh29_4  1  0.69865784  0.27950783  0.25000000  1
  Rh  Rh29_5  1  0.69865784  0.27950783  0.75000000  1
  Rh  Rh29_6  1  0.69865784  0.77950783  0.25000000  1
  Rh  Rh29_7  1  0.69865784  0.77950783  0.75000000  1
  Rh  Rh30_0  1  0.27950783  0.30134216  0.25000000  1
  Rh  Rh30_1  1  0.27950783  0.30134216  0.75000000  1
  Rh  Rh30_2  1  0.27950783  0.80134216  0.25000000  1
  Rh  Rh30_3  1  0.27950783  0.80134216  0.75000000  1
  Rh  Rh30_4  1  0.77950783  0.30134216  0.25000000  1
  Rh  Rh30_5  1  0.77950783  0.30134216  0.75000000  1
  Rh  Rh30_6  1  0.77950783  0.80134216  0.25000000  1
  Rh  Rh30_7  1  0.77950783  0.80134216  0.75000000  1
  Rh  Rh31_0  1  0.22049217  0.19865784  0.25000000  1
  Rh  Rh31_1  1  0.22049217  0.19865784  0.75000000  1
  Rh  Rh31_2  1  0.22049217  0.69865784  0.25000000  1
  Rh  Rh31_3  1  0.22049217  0.69865784  0.75000000  1
  Rh  Rh31_4  1  0.72049216  0.19865784  0.25000000  1
  Rh  Rh31_5  1  0.72049216  0.19865784  0.75000000  1
  Rh  Rh31_6  1  0.72049216  0.69865784  0.25000000  1
  Rh  Rh31_7  1  0.72049216  0.69865784  0.75000000  1
  Rh  Rh32_0  1  0.03997333  0.28997333  0.25000000  1
  Rh  Rh32_1  1  0.03997333  0.28997333  0.75000000  1
  Rh  Rh32_2  1  0.03997333  0.78997333  0.25000000  1
  Rh  Rh32_3  1  0.03997333  0.78997333  0.75000000  1
  Rh  Rh32_4  1  0.53997332  0.28997333  0.25000000  1
  Rh  Rh32_5  1  0.53997332  0.28997333  0.75000000  1
  Rh  Rh32_6  1  0.53997332  0.78997333  0.25000000  1
  Rh  Rh32_7  1  0.53997332  0.78997333  0.75000000  1
  Rh  Rh33_0  1  0.46002667  0.21002667  0.25000000  1
  Rh  Rh33_1  1  0.46002667  0.21002667  0.75000000  1
  Rh  Rh33_2  1  0.46002667  0.71002668  0.25000000  1
  Rh  Rh33_3  1  0.46002667  0.71002668  0.75000000  1
  Rh  Rh33_4  1  0.96002668  0.21002667  0.25000000  1
  Rh  Rh33_5  1  0.96002668  0.21002667  0.75000000  1
  Rh  Rh33_6  1  0.96002668  0.71002668  0.25000000  1
  Rh  Rh33_7  1  0.96002668  0.71002668  0.75000000  1
  Rh  Rh34_0  1  0.28997333  0.46002667  0.25000000  1
  Rh  Rh34_1  1  0.28997333  0.46002667  0.75000000  1
  Rh  Rh34_2  1  0.28997333  0.96002668  0.25000000  1
  Rh  Rh34_3  1  0.28997333  0.96002668  0.75000000  1
  Rh  Rh34_4  1  0.78997333  0.46002667  0.25000000  1
  Rh  Rh34_5  1  0.78997333  0.46002667  0.75000000  1
  Rh  Rh34_6  1  0.78997333  0.96002668  0.25000000  1
  Rh  Rh34_7  1  0.78997333  0.96002668  0.75000000  1
  Rh  Rh35_0  1  0.21002667  0.03997333  0.25000000  1
  Rh  Rh35_1  1  0.21002667  0.03997333  0.75000000  1
  Rh  Rh35_2  1  0.21002667  0.53997332  0.25000000  1
  Rh  Rh35_3  1  0.21002667  0.53997332  0.75000000  1
  Rh  Rh35_4  1  0.71002668  0.03997333  0.25000000  1
  Rh  Rh35_5  1  0.71002668  0.03997333  0.75000000  1
  Rh  Rh35_6  1  0.71002668  0.53997332  0.25000000  1
  Rh  Rh35_7  1  0.71002668  0.53997332  0.75000000  1
loop_
_geom_bond_atom_site_label_1
_geom_bond_atom_site_label_2
_geom_bond_distance
_geom_bond_site_symmetry_2
Zn0_0 Zn1_2 2.510528 1_545
Zn0_1 Zn1_3 2.510528 1_545
Zn0_2 Zn1_0 2.510528 1_555
Zn0_3 Zn1_1 2.510528 1_555
Zn0_4 Zn1_6 2.510528 1_545
Zn0_5 Zn1_7 2.510528 1_545
Zn0_6 Zn1_4 2.510528 1_555
Zn0_7 Zn1_5 2.510528 1_555
Zn2_0 Zn3_4 2.510528 1_455
Zn2_1 Zn3_5 2.510528 1_455
Zn2_2 Zn3_6 2.510528 1_455
Zn2_3 Zn3_7 2.510528 1_455
Zn2_4 Zn3_0 2.510528 1_555
Zn2_5 Zn3_1 2.510528 1_555
Zn2_6 Zn3_2 2.510528 1_555
Zn2_7 Zn3_3 2.510528 1_555
Zn4_0 Zn4_1 2.862269 1_555
Zn4_0 Zn4_1 2.862269 1_554
Zn4_2 Zn4_3 2.862269 1_555
Zn4_2 Zn4_3 2.862269 1_554
Zn4_4 Zn4_5 2.862269 1_555
Zn4_4 Zn4_5 2.862269 1_554
Zn4_6 Zn4_7 2.862269 1_555
Zn4_6 Zn4_7 2.862269 1_554
Zn5_0 Zn5_1 2.862269 1_555
Zn5_0 Zn5_1 2.862269 1_554
Zn5_2 Zn5_3 2.862269 1_555
Zn5_2 Zn5_3 2.862269 1_554
Zn5_4 Zn5_5 2.862269 1_555
Zn5_4 Zn5_5 2.862269 1_554
Zn5_6 Zn5_7 2.862269 1_555
Zn5_6 Zn5_7 2.862269 1_554
Zn6_0 Zn6_1 2.862269 1_555
Zn6_0 Zn6_1 2.862269 1_554
Zn6_2 Zn6_3 2.862269 1_555
Zn6_2 Zn6_3 2.862269 1_554
Zn6_4 Zn6_5 2.862269 1_555
Zn6_4 Zn6_5 2.862269 1_554
Zn6_6 Zn6_7 2.862269 1_555
Zn6_6 Zn6_7 2.862269 1_554
Zn7_0 Zn7_1 2.862269 1_555
Zn7_0 Zn7_1 2.862269 1_554
Zn7_2 Zn7_3 2.862269 1_555
Zn7_2 Zn7_3 2.862269 1_554
Zn7_4 Zn7_5 2.862269 1_555
Zn7_4 Zn7_5 2.862269 1_554
Zn7_6 Zn7_7 2.862269 1_555
Zn7_6 Zn7_7 2.862269 1_554
Zn8_0 Zn8_1 2.862269 1_555
Zn8_0 Zn8_1 2.862269 1_554
Zn8_2 Zn8_3 2.862269 1_555
Zn8_2 Zn8_3 2.862269 1_554
Zn8_4 Zn8_5 2.862269 1_555
Zn8_4 Zn8_5 2.862269 1_554
Zn8_6 Zn8_7 2.862269 1_555
Zn8_6 Zn8_7 2.862269 1_554
Zn9_0 Zn9_1 2.862269 1_555
Zn9_0 Zn9_1 2.862269 1_554
Zn9_2 Zn9_3 2.862269 1_555
Zn9_2 Zn9_3 2.862269 1_554
Zn9_4 Zn9_5 2.862269 1_555
Zn9_4 Zn9_5 2.862269 1_554
Zn9_6 Zn9_7 2.862269 1_555
Zn9_6 Zn9_7 2.862269 1_554
Zn10_0 Zn10_1 2.862269 1_555
Zn10_0 Zn10_1 2.862269 1_554
Zn10_2 Zn10_3 2.862269 1_555
Zn10_2 Zn10_3 2.862269 1_554
Zn10_4 Zn10_5 2.862269 1_555
Zn10_4 Zn10_5 2.862269 1_554
Zn10_6 Zn10_7 2.862269 1_555
Zn10_6 Zn10_7 2.862269 1_554
Zn11_0 Zn11_1 2.862269 1_555
Zn11_0 Zn11_1 2.862269 1_554
Zn11_2 Zn11_3 2.862269 1_555
Zn11_2 Zn11_3 2.862269 1_554
Zn11_4 Zn11_5 2.862269 1_555
Zn11_4 Zn11_5 2.862269 1_554
Zn11_6 Zn11_7 2.862269 1_555
Zn11_6 Zn11_7 2.862269 1_554
Ge0_0 Rh28_4 2.541727 1_455
Ge0_0 Rh28_5 2.541727 1_454
Ge0_0 Rh25_6 2.541727 1_445
Ge0_0 Rh25_7 2.541727 1_444
Ge0_0 Rh24_0 2.541727 1_555
Ge0_0 Rh26_2 2.541727 1_545
Ge0_0 Rh24_1 2.541727 1_554
Ge0_0 Rh26_3 2.541727 1_544
Ge0_1 Rh28_4 2.541727 1_455
Ge0_1 Rh25_6 2.541727 1_445
Ge0_1 Rh25_7 2.541727 1_445
Ge0_1 Rh28_5 2.541727 1_455
Ge0_1 Rh24_0 2.541727 1_555
Ge0_1 Rh26_2 2.541727 1_545
Ge0_1 Rh26_3 2.541727 1_545
Ge0_1 Rh24_1 2.541727 1_555
Ge0_2 Rh25_4 2.541727 1_455
Ge0_2 Rh28_7 2.541727 1_454
Ge0_2 Rh28_6 2.541727 1_455
Ge0_2 Rh24_2 2.541727 1_555
Ge0_2 Rh24_3 2.541727 1_554
Ge0_2 Rh26_0 2.541727 1_555
Ge0_2 Rh25_5 2.541727 1_454
Ge0_2 Rh26_1 2.541727 1_554
Ge0_3 Rh25_4 2.541727 1_455
Ge0_3 Rh28_6 2.541727 1_455
Ge0_3 Rh28_7 2.541727 1_455
Ge0_3 Rh24_2 2.541727 1_555
Ge0_3 Rh25_5 2.541727 1_455
Ge0_3 Rh26_0 2.541727 1_555
Ge0_3 Rh24_3 2.541727 1_555
Ge0_3 Rh26_1 2.541727 1_555
Ge0_4 Rh28_0 2.541727 1_555
Ge0_4 Rh26_6 2.541727 1_545
Ge0_4 Rh28_1 2.541727 1_554
Ge0_4 Rh26_7 2.541727 1_544
Ge0_4 Rh25_3 2.541727 1_544
Ge0_4 Rh24_4 2.541727 1_555
Ge0_4 Rh25_2 2.541727 1_545
Ge0_4 Rh24_5 2.541727 1_554
Ge0_5 Rh28_0 2.541727 1_555
Ge0_5 Rh26_6 2.541727 1_545
Ge0_5 Rh26_7 2.541727 1_545
Ge0_5 Rh24_4 2.541727 1_555
Ge0_5 Rh25_2 2.541727 1_545
Ge0_5 Rh28_1 2.541727 1_555
Ge0_5 Rh25_3 2.541727 1_545
Ge0_5 Rh24_5 2.541727 1_555
Ge0_6 Rh26_5 2.541727 1_554
Ge0_6 Rh24_6 2.541727 1_555
Ge0_6 Rh26_4 2.541727 1_555
Ge0_6 Rh28_2 2.541727 1_555
Ge0_6 Rh25_1 2.541727 1_554
Ge0_6 Rh25_0 2.541727 1_555
Ge0_6 Rh28_3 2.541727 1_554
Ge0_6 Rh24_7 2.541727 1_554
Ge0_7 Rh24_6 2.541727 1_555
Ge0_7 Rh26_4 2.541727 1_555
Ge0_7 Rh24_7 2.541727 1_555
Ge0_7 Rh28_3 2.541727 1_555
Ge0_7 Rh25_1 2.541727 1_555
Ge0_7 Rh26_5 2.541727 1_555
Ge0_7 Rh25_0 2.541727 1_555
Ge0_7 Rh28_2 2.541727 1_555
Ge1_0 Rh30_0 2.541727 1_555
Ge1_0 Rh30_1 2.541727 1_554
Ge1_0 Rh29_1 2.541727 1_554
Ge1_0 Rh27_0 2.541727 1_555
Ge1_0 Rh27_1 2.541727 1_554
Ge1_0 Rh29_0 2.541727 1_555
Ge1_0 Rh31_0 2.541727 1_555
Ge1_0 Rh31_1 2.541727 1_554
Ge1_1 Rh30_0 2.541727 1_555
Ge1_1 Rh29_1 2.541727 1_555
Ge1_1 Rh30_1 2.541727 1_555
Ge1_1 Rh27_0 2.541727 1_555
Ge1_1 Rh29_0 2.541727 1_555
Ge1_1 Rh31_0 2.541727 1_555
Ge1_1 Rh31_1 2.541727 1_555
Ge1_1 Rh27_1 2.541727 1_555
Ge1_2 Rh31_3 2.541727 1_554
Ge1_2 Rh31_2 2.541727 1_555
Ge1_2 Rh27_2 2.541727 1_555
Ge1_2 Rh27_3 2.541727 1_554
Ge1_2 Rh29_3 2.541727 1_554
Ge1_2 Rh29_2 2.541727 1_555
Ge1_2 Rh30_2 2.541727 1_555
Ge1_2 Rh30_3 2.541727 1_554
Ge1_3 Rh31_3 2.541727 1_555
Ge1_3 Rh31_2 2.541727 1_555
Ge1_3 Rh27_2 2.541727 1_555
Ge1_3 Rh27_3 2.541727 1_555
Ge1_3 Rh29_3 2.541727 1_555
Ge1_3 Rh29_2 2.541727 1_555
Ge1_3 Rh30_2 2.541727 1_555
Ge1_3 Rh30_3 2.541727 1_555
Ge1_4 Rh29_5 2.541727 1_554
Ge1_4 Rh29_4 2.541727 1_555
Ge1_4 Rh31_4 2.541727 1_555
Ge1_4 Rh31_5 2.541727 1_554
Ge1_4 Rh30_4 2.541727 1_555
Ge1_4 Rh30_5 2.541727 1_554
Ge1_4 Rh27_4 2.541727 1_555
Ge1_4 Rh27_5 2.541727 1_554
Ge1_5 Rh29_4 2.541727 1_555
Ge1_5 Rh29_5 2.541727 1_555
Ge1_5 Rh31_4 2.541727 1_555
Ge1_5 Rh31_5 2.541727 1_555
Ge1_5 Rh30_4 2.541727 1_555
Ge1_5 Rh30_5 2.541727 1_555
Ge1_5 Rh27_4 2.541727 1_555
Ge1_5 Rh27_5 2.541727 1_555
Ge1_6 Rh31_6 2.541727 1_555
Ge1_6 Rh31_7 2.541727 1_554
Ge1_6 Rh29_6 2.541727 1_555
Ge1_6 Rh29_7 2.541727 1_554
Ge1_6 Rh27_6 2.541727 1_555
Ge1_6 Rh27_7 2.541727 1_554
Ge1_6 Rh30_7 2.541727 1_554
Ge1_6 Rh30_6 2.541727 1_555
Ge1_7 Rh31_6 2.541727 1_555
Ge1_7 Rh31_7 2.541727 1_555
Ge1_7 Rh29_6 2.541727 1_555
Ge1_7 Rh29_7 2.541727 1_555
Ge1_7 Rh27_6 2.541727 1_555
Ge1_7 Rh27_7 2.541727 1_555
Ge1_7 Rh30_6 2.541727 1_555
Ge1_7 Rh30_7 2.541727 1_555
B0_0 Rh10_3 2.108246 1_544
B0_0 Rh10_2 2.108246 1_545
B0_0 Rh0_1 2.179083 1_554
B0_0 Rh0_0 2.179083 1_555
B0_0 Rh35_0 2.199004 1_555
B0_0 Rh35_1 2.199004 1_554
B0_0 Zn1_2 2.562745 1_545
B0_0 Zn6_2 2.781740 1_545
B0_1 Rh10_2 2.108246 1_545
B0_1 Rh10_3 2.108246 1_545
B0_1 Rh0_0 2.179083 1_555
B0_1 Rh0_1 2.179083 1_555
B0_1 Rh35_0 2.199004 1_555
B0_1 Rh35_1 2.199004 1_555
B0_1 Zn1_3 2.562745 1_545
B0_1 Zn6_3 2.781740 1_545
B0_2 Rh10_0 2.108246 1_555
B0_2 Rh10_1 2.108246 1_554
B0_2 Rh0_3 2.179083 1_554
B0_2 Rh0_2 2.179083 1_555
B0_2 Rh35_3 2.199004 1_554
B0_2 Rh35_2 2.199004 1_555
B0_2 Zn1_0 2.562745 1_555
B0_2 Zn6_0 2.781740 1_555
B0_3 Rh10_0 2.108246 1_555
B0_3 Rh10_1 2.108246 1_555
B0_3 Rh0_2 2.179083 1_555
B0_3 Rh0_3 2.179083 1_555
B0_3 Rh35_3 2.199004 1_555
B0_3 Rh35_2 2.199004 1_555
B0_3 Zn1_1 2.562745 1_555
B0_3 Zn6_1 2.781740 1_555
B0_4 Rh10_6 2.108246 1_545
B0_4 Rh10_7 2.108246 1_544
B0_4 Rh0_4 2.179083 1_555
B0_4 Rh0_5 2.179083 1_554
B0_4 Rh35_4 2.199004 1_555
B0_4 Rh35_5 2.199004 1_554
B0_4 Zn1_6 2.562745 1_545
B0_4 Zn6_6 2.781740 1_545
B0_5 Rh10_6 2.108246 1_545
B0_5 Rh10_7 2.108246 1_545
B0_5 Rh0_4 2.179083 1_555
B0_5 Rh0_5 2.179083 1_555
B0_5 Rh35_4 2.199004 1_555
B0_5 Rh35_5 2.199004 1_555
B0_5 Zn1_7 2.562745 1_545
B0_5 Zn6_7 2.781740 1_545
B0_6 Rh10_4 2.108246 1_555
B0_6 Rh10_5 2.108246 1_554
B0_6 Rh0_7 2.179083 1_554
B0_6 Rh0_6 2.179083 1_555
B0_6 Rh35_6 2.199004 1_555
B0_6 Rh35_7 2.199004 1_554
B0_6 Zn1_4 2.562745 1_555
B0_6 Zn6_4 2.781740 1_555
B0_7 Rh10_4 2.108246 1_555
B0_7 Rh10_5 2.108246 1_555
B0_7 Rh0_7 2.179083 1_555
B0_7 Rh0_6 2.179083 1_555
B0_7 Rh35_6 2.199004 1_555
B0_7 Rh35_7 2.199004 1_555
B0_7 Zn1_5 2.562745 1_555
B0_7 Zn6_5 2.781740 1_555
B1_0 Rh12_2 2.108246 1_555
B1_0 Rh12_3 2.108246 1_554
B1_0 Rh1_1 2.179083 1_554
B1_0 Rh1_0 2.179083 1_555
B1_0 Rh34_0 2.199004 1_555
B1_0 Rh34_1 2.199004 1_554
B1_0 Zn0_2 2.562745 1_555
B1_0 Zn8_2 2.781740 1_555
B1_1 Rh12_2 2.108246 1_555
B1_1 Rh12_3 2.108246 1_555
B1_1 Rh1_1 2.179083 1_555
B1_1 Rh1_0 2.179083 1_555
B1_1 Rh34_1 2.199004 1_555
B1_1 Rh34_0 2.199004 1_555
B1_1 Zn0_3 2.562745 1_555
B1_1 Zn8_3 2.781740 1_555
B1_2 Rh12_0 2.108246 1_565
B1_2 Rh12_1 2.108246 1_564
B1_2 Rh1_2 2.179083 1_555
B1_2 Rh1_3 2.179083 1_554
B1_2 Rh34_2 2.199004 1_555
B1_2 Rh34_3 2.199004 1_554
B1_2 Zn0_0 2.562745 1_565
B1_2 Zn8_0 2.781740 1_565
B1_3 Rh12_0 2.108246 1_565
B1_3 Rh12_1 2.108246 1_565
B1_3 Rh1_3 2.179083 1_555
B1_3 Rh1_2 2.179083 1_555
B1_3 Rh34_2 2.199004 1_555
B1_3 Rh34_3 2.199004 1_555
B1_3 Zn0_1 2.562745 1_565
B1_3 Zn8_1 2.781740 1_565
B1_4 Rh12_6 2.108246 1_555
B1_4 Rh12_7 2.108246 1_554
B1_4 Rh1_5 2.179083 1_554
B1_4 Rh1_4 2.179083 1_555
B1_4 Rh34_4 2.199004 1_555
B1_4 Rh34_5 2.199004 1_554
B1_4 Zn0_6 2.562745 1_555
B1_4 Zn8_6 2.781740 1_555
B1_5 Rh12_6 2.108246 1_555
B1_5 Rh12_7 2.108246 1_555
B1_5 Rh1_5 2.179083 1_555
B1_5 Rh1_4 2.179083 1_555
B1_5 Rh34_4 2.199004 1_555
B1_5 Rh34_5 2.199004 1_555
B1_5 Zn0_7 2.562745 1_555
B1_5 Zn8_7 2.781740 1_555
B1_6 Rh12_4 2.108246 1_565
B1_6 Rh12_5 2.108246 1_564
B1_6 Rh1_7 2.179083 1_554
B1_6 Rh1_6 2.179083 1_555
B1_6 Rh34_6 2.199004 1_555
B1_6 Rh34_7 2.199004 1_554
B1_6 Zn0_4 2.562745 1_565
B1_6 Zn8_4 2.781740 1_565
B1_7 Rh12_4 2.108246 1_565
B1_7 Rh12_5 2.108246 1_565
B1_7 Rh1_7 2.179083 1_555
B1_7 Rh1_6 2.179083 1_555
B1_7 Rh34_6 2.199004 1_555
B1_7 Rh34_7 2.199004 1_555
B1_7 Zn0_5 2.562745 1_565
B1_7 Zn8_5 2.781740 1_565
B2_0 Rh9_4 2.108246 1_455
B2_0 Rh9_5 2.108246 1_454
B2_0 Rh2_0 2.179083 1_555
B2_0 Rh2_1 2.179083 1_554
B2_0 Rh32_0 2.199004 1_555
B2_0 Rh32_1 2.199004 1_554
B2_0 Zn3_4 2.562745 1_455
B2_0 Zn5_4 2.781740 1_455
B2_1 Rh9_4 2.108246 1_455
B2_1 Rh9_5 2.108246 1_455
B2_1 Rh2_0 2.179083 1_555
B2_1 Rh2_1 2.179083 1_555
B2_1 Rh32_0 2.199004 1_555
B2_1 Rh32_1 2.199004 1_555
B2_1 Zn3_5 2.562745 1_455
B2_1 Zn5_5 2.781740 1_455
B2_2 Rh9_6 2.108246 1_455
B2_2 Rh9_7 2.108246 1_454
B2_2 Rh2_2 2.179083 1_555
B2_2 Rh2_3 2.179083 1_554
B2_2 Rh32_2 2.199004 1_555
B2_2 Rh32_3 2.199004 1_554
B2_2 Zn3_6 2.562745 1_455
B2_2 Zn5_6 2.781740 1_455
B2_3 Rh9_6 2.108246 1_455
B2_3 Rh9_7 2.108246 1_455
B2_3 Rh2_2 2.179083 1_555
B2_3 Rh2_3 2.179083 1_555
B2_3 Rh32_2 2.199004 1_555
B2_3 Rh32_3 2.199004 1_555
B2_3 Zn3_7 2.562745 1_455
B2_3 Zn5_7 2.781740 1_455
B2_4 Rh9_1 2.108246 1_554
B2_4 Rh9_0 2.108246 1_555
B2_4 Rh2_4 2.179083 1_555
B2_4 Rh2_5 2.179083 1_554
B2_4 Rh32_4 2.199004 1_555
B2_4 Rh32_5 2.199004 1_554
B2_4 Zn3_0 2.562745 1_555
B2_4 Zn5_0 2.781740 1_555
B2_5 Rh9_1 2.108246 1_555
B2_5 Rh9_0 2.108246 1_555
B2_5 Rh2_4 2.179083 1_555
B2_5 Rh2_5 2.179083 1_555
B2_5 Rh32_4 2.199004 1_555
B2_5 Rh32_5 2.199004 1_555
B2_5 Zn3_1 2.562745 1_555
B2_5 Zn5_1 2.781740 1_555
B2_6 Rh9_2 2.108246 1_555
B2_6 Rh9_3 2.108246 1_554
B2_6 Rh2_6 2.179083 1_555
B2_6 Rh2_7 2.179083 1_554
B2_6 Rh32_6 2.199004 1_555
B2_6 Rh32_7 2.199004 1_554
B2_6 Zn3_2 2.562745 1_555
B2_6 Zn5_2 2.781740 1_555
B2_7 Rh9_2 2.108246 1_555
B2_7 Rh9_3 2.108246 1_555
B2_7 Rh2_6 2.179083 1_555
B2_7 Rh2_7 2.179083 1_555
B2_7 Rh32_6 2.199004 1_555
B2_7 Rh32_7 2.199004 1_555
B2_7 Zn3_3 2.562745 1_555
B2_7 Zn5_3 2.781740 1_555
B3_0 Rh14_1 2.108246 1_554
B3_0 Rh14_0 2.108246 1_555
B3_0 Rh3_0 2.179083 1_555
B3_0 Rh3_1 2.179083 1_554
B3_0 Rh33_0 2.199004 1_555
B3_0 Rh33_1 2.199004 1_554
B3_0 Zn3_0 2.562745 1_555
B3_0 Zn10_0 2.781740 1_555
B3_1 Rh14_0 2.108246 1_555
B3_1 Rh14_1 2.108246 1_555
B3_1 Rh3_0 2.179083 1_555
B3_1 Rh3_1 2.179083 1_555
B3_1 Rh33_0 2.199004 1_555
B3_1 Rh33_1 2.199004 1_555
B3_1 Zn3_1 2.562745 1_555
B3_1 Zn10_1 2.781740 1_555
B3_2 Rh14_2 2.108246 1_555
B3_2 Rh14_3 2.108246 1_554
B3_2 Rh3_2 2.179083 1_555
B3_2 Rh3_3 2.179083 1_554
B3_2 Rh33_3 2.199004 1_554
B3_2 Rh33_2 2.199004 1_555
B3_2 Zn3_2 2.562745 1_555
B3_2 Zn10_2 2.781740 1_555
B3_3 Rh14_3 2.108246 1_555
B3_3 Rh14_2 2.108246 1_555
B3_3 Rh3_2 2.179083 1_555
B3_3 Rh3_3 2.179083 1_555
B3_3 Rh33_3 2.199004 1_555
B3_3 Rh33_2 2.199004 1_555
B3_3 Zn3_3 2.562745 1_555
B3_3 Zn10_3 2.781740 1_555
B3_4 Rh14_4 2.108246 1_555
B3_4 Rh14_5 2.108246 1_554
B3_4 Rh3_4 2.179083 1_555
B3_4 Rh3_5 2.179083 1_554
B3_4 Rh33_4 2.199004 1_555
B3_4 Rh33_5 2.199004 1_554
B3_4 Zn3_4 2.562745 1_555
B3_4 Zn10_4 2.781740 1_555
B3_5 Rh14_4 2.108246 1_555
B3_5 Rh14_5 2.108246 1_555
B3_5 Rh3_4 2.179083 1_555
B3_5 Rh3_5 2.179083 1_555
B3_5 Rh33_4 2.199004 1_555
B3_5 Rh33_5 2.199004 1_555
B3_5 Zn3_5 2.562745 1_555
B3_5 Zn10_5 2.781740 1_555
B3_6 Rh14_6 2.108246 1_555
B3_6 Rh14_7 2.108246 1_554
B3_6 Rh3_6 2.179083 1_555
B3_6 Rh3_7 2.179083 1_554
B3_6 Rh33_6 2.199004 1_555
B3_6 Rh33_7 2.199004 1_554
B3_6 Zn3_6 2.562745 1_555
B3_6 Zn10_6 2.781740 1_555
B3_7 Rh14_6 2.108246 1_555
B3_7 Rh14_7 2.108246 1_555
B3_7 Rh3_6 2.179083 1_555
B3_7 Rh3_7 2.179083 1_555
B3_7 Rh33_6 2.199004 1_555
B3_7 Rh33_7 2.199004 1_555
B3_7 Zn3_7 2.562745 1_555
B3_7 Zn10_7 2.781740 1_555
B4_0 Rh8_4 2.108246 1_555
B4_0 Rh8_5 2.108246 1_554
B4_0 Rh4_0 2.179083 1_555
B4_0 Rh4_1 2.179083 1_554
B4_0 Rh33_1 2.199004 1_554
B4_0 Rh33_0 2.199004 1_555
B4_0 Zn2_4 2.562745 1_555
B4_0 Zn4_4 2.781740 1_555
B4_1 Rh8_4 2.108246 1_555
B4_1 Rh8_5 2.108246 1_555
B4_1 Rh4_0 2.179083 1_555
B4_1 Rh4_1 2.179083 1_555
B4_1 Rh33_1 2.199004 1_555
B4_1 Rh33_0 2.199004 1_555
B4_1 Zn2_5 2.562745 1_555
B4_1 Zn4_5 2.781740 1_555
B4_2 Rh8_6 2.108246 1_555
B4_2 Rh8_7 2.108246 1_554
B4_2 Rh4_3 2.179083 1_554
B4_2 Rh4_2 2.179083 1_555
B4_2 Rh33_2 2.199004 1_555
B4_2 Rh33_3 2.199004 1_554
B4_2 Zn2_6 2.562745 1_555
B4_2 Zn4_6 2.781740 1_555
B4_3 Rh8_6 2.108246 1_555
B4_3 Rh8_7 2.108246 1_555
B4_3 Rh4_2 2.179083 1_555
B4_3 Rh4_3 2.179083 1_555
B4_3 Rh33_2 2.199004 1_555
B4_3 Rh33_3 2.199004 1_555
B4_3 Zn2_7 2.562745 1_555
B4_3 Zn4_7 2.781740 1_555
B4_4 Rh8_0 2.108246 1_655
B4_4 Rh8_1 2.108246 1_654
B4_4 Rh4_4 2.179083 1_555
B4_4 Rh4_5 2.179083 1_554
B4_4 Rh33_4 2.199004 1_555
B4_4 Rh33_5 2.199004 1_554
B4_4 Zn2_0 2.562745 1_655
B4_4 Zn4_0 2.781740 1_655
B4_5 Rh8_0 2.108246 1_655
B4_5 Rh8_1 2.108246 1_655
B4_5 Rh4_4 2.179083 1_555
B4_5 Rh4_5 2.179083 1_555
B4_5 Rh33_4 2.199004 1_555
B4_5 Rh33_5 2.199004 1_555
B4_5 Zn2_1 2.562745 1_655
B4_5 Zn4_1 2.781740 1_655
B4_6 Rh8_2 2.108246 1_655
B4_6 Rh8_3 2.108246 1_654
B4_6 Rh4_6 2.179083 1_555
B4_6 Rh4_7 2.179083 1_554
B4_6 Rh33_6 2.199004 1_555
B4_6 Rh33_7 2.199004 1_554
B4_6 Zn2_2 2.562745 1_655
B4_6 Zn4_2 2.781740 1_655
B4_7 Rh8_2 2.108246 1_655
B4_7 Rh8_3 2.108246 1_655
B4_7 Rh4_6 2.179083 1_555
B4_7 Rh4_7 2.179083 1_555
B4_7 Rh33_7 2.199004 1_555
B4_7 Rh33_6 2.199004 1_555
B4_7 Zn2_3 2.562745 1_655
B4_7 Zn4_3 2.781740 1_655
B5_0 Rh15_0 2.108246 1_555
B5_0 Rh15_1 2.108246 1_554
B5_0 Rh5_0 2.179083 1_555
B5_0 Rh5_1 2.179083 1_554
B5_0 Rh32_0 2.199004 1_555
B5_0 Rh32_1 2.199004 1_554
B5_0 Zn2_0 2.562745 1_555
B5_0 Zn11_0 2.781740 1_555
B5_1 Rh15_0 2.108246 1_555
B5_1 Rh15_1 2.108246 1_555
B5_1 Rh5_0 2.179083 1_555
B5_1 Rh5_1 2.179083 1_555
B5_1 Rh32_0 2.199004 1_555
B5_1 Rh32_1 2.199004 1_555
B5_1 Zn2_1 2.562745 1_555
B5_1 Zn11_1 2.781740 1_555
B5_2 Rh15_2 2.108246 1_555
B5_2 Rh15_3 2.108246 1_554
B5_2 Rh5_2 2.179083 1_555
B5_2 Rh5_3 2.179083 1_554
B5_2 Rh32_2 2.199004 1_555
B5_2 Rh32_3 2.199004 1_554
B5_2 Zn2_2 2.562745 1_555
B5_2 Zn11_2 2.781740 1_555
B5_3 Rh15_2 2.108246 1_555
B5_3 Rh15_3 2.108246 1_555
B5_3 Rh5_2 2.179083 1_555
B5_3 Rh5_3 2.179083 1_555
B5_3 Rh32_2 2.199004 1_555
B5_3 Rh32_3 2.199004 1_555
B5_3 Zn2_3 2.562745 1_555
B5_3 Zn11_3 2.781740 1_555
B5_4 Rh15_4 2.108246 1_555
B5_4 Rh15_5 2.108246 1_554
B5_4 Rh5_4 2.179083 1_555
B5_4 Rh5_5 2.179083 1_554
B5_4 Rh32_5 2.199004 1_554
B5_4 Rh32_4 2.199004 1_555
B5_4 Zn2_4 2.562745 1_555
B5_4 Zn11_4 2.781740 1_555
B5_5 Rh15_4 2.108246 1_555
B5_5 Rh15_5 2.108246 1_555
B5_5 Rh5_4 2.179083 1_555
B5_5 Rh5_5 2.179083 1_555
B5_5 Rh32_5 2.199004 1_555
B5_5 Rh32_4 2.199004 1_555
B5_5 Zn2_5 2.562745 1_555
B5_5 Zn11_5 2.781740 1_555
B5_6 Rh15_6 2.108246 1_555
B5_6 Rh15_7 2.108246 1_554
B5_6 Rh5_6 2.179083 1_555
B5_6 Rh5_7 2.179083 1_554
B5_6 Rh32_6 2.199004 1_555
B5_6 Rh32_7 2.199004 1_554
B5_6 Zn2_6 2.562745 1_555
B5_6 Zn11_6 2.781740 1_555
B5_7 Rh15_6 2.108246 1_555
B5_7 Rh15_7 2.108246 1_555
B5_7 Rh5_7 2.179083 1_555
B5_7 Rh5_6 2.179083 1_555
B5_7 Rh32_7 2.199004 1_555
B5_7 Rh32_6 2.199004 1_555
B5_7 Zn2_7 2.562745 1_555
B5_7 Zn11_7 2.781740 1_555
B6_0 Rh13_0 2.108246 1_555
B6_0 Rh13_1 2.108246 1_554
B6_0 Rh6_0 2.179083 1_555
B6_0 Rh6_1 2.179083 1_554
B6_0 Rh34_0 2.199004 1_555
B6_0 Rh34_1 2.199004 1_554
B6_0 Zn1_0 2.562745 1_555
B6_0 Zn9_0 2.781740 1_555
B6_1 Rh13_0 2.108246 1_555
B6_1 Rh13_1 2.108246 1_555
B6_1 Rh6_0 2.179083 1_555
B6_1 Rh6_1 2.179083 1_555
B6_1 Rh34_0 2.199004 1_555
B6_1 Rh34_1 2.199004 1_555
B6_1 Zn1_1 2.562745 1_555
B6_1 Zn9_1 2.781740 1_555
B6_2 Rh13_3 2.108246 1_554
B6_2 Rh13_2 2.108246 1_555
B6_2 Rh6_2 2.179083 1_555
B6_2 Rh6_3 2.179083 1_554
B6_2 Rh34_2 2.199004 1_555
B6_2 Rh34_3 2.199004 1_554
B6_2 Zn1_2 2.562745 1_555
B6_2 Zn9_2 2.781740 1_555
B6_3 Rh13_2 2.108246 1_555
B6_3 Rh13_3 2.108246 1_555
B6_3 Rh6_2 2.179083 1_555
B6_3 Rh6_3 2.179083 1_555
B6_3 Rh34_2 2.199004 1_555
B6_3 Rh34_3 2.199004 1_555
B6_3 Zn1_3 2.562745 1_555
B6_3 Zn9_3 2.781740 1_555
B6_4 Rh13_4 2.108246 1_555
B6_4 Rh13_5 2.108246 1_554
B6_4 Rh6_4 2.179083 1_555
B6_4 Rh6_5 2.179083 1_554
B6_4 Rh34_4 2.199004 1_555
B6_4 Rh34_5 2.199004 1_554
B6_4 Zn1_4 2.562745 1_555
B6_4 Zn9_4 2.781740 1_555
B6_5 Rh13_4 2.108246 1_555
B6_5 Rh13_5 2.108246 1_555
B6_5 Rh6_4 2.179083 1_555
B6_5 Rh6_5 2.179083 1_555
B6_5 Rh34_4 2.199004 1_555
B6_5 Rh34_5 2.199004 1_555
B6_5 Zn1_5 2.562745 1_555
B6_5 Zn9_5 2.781740 1_555
B6_6 Rh13_7 2.108246 1_554
B6_6 Rh13_6 2.108246 1_555
B6_6 Rh6_6 2.179083 1_555
B6_6 Rh6_7 2.179083 1_554
B6_6 Rh34_6 2.199004 1_555
B6_6 Rh34_7 2.199004 1_554
B6_6 Zn1_6 2.562745 1_555
B6_6 Zn9_6 2.781740 1_555
B6_7 Rh13_6 2.108246 1_555
B6_7 Rh13_7 2.108246 1_555
B6_7 Rh6_6 2.179083 1_555
B6_7 Rh6_7 2.179083 1_555
B6_7 Rh34_6 2.199004 1_555
B6_7 Rh34_7 2.199004 1_555
B6_7 Zn1_7 2.562745 1_555
B6_7 Zn9_7 2.781740 1_555
B7_0 Rh11_1 2.108246 1_554
B7_0 Rh11_0 2.108246 1_555
B7_0 Rh7_0 2.179083 1_555
B7_0 Rh7_1 2.179083 1_554
B7_0 Rh35_0 2.199004 1_555
B7_0 Rh35_1 2.199004 1_554
B7_0 Zn0_0 2.562745 1_555
B7_0 Zn7_0 2.781740 1_555
B7_1 Rh11_1 2.108246 1_555
B7_1 Rh11_0 2.108246 1_555
B7_1 Rh7_0 2.179083 1_555
B7_1 Rh7_1 2.179083 1_555
B7_1 Rh35_0 2.199004 1_555
B7_1 Rh35_1 2.199004 1_555
B7_1 Zn0_1 2.562745 1_555
B7_1 Zn7_1 2.781740 1_555
B7_2 Rh11_3 2.108246 1_554
B7_2 Rh11_2 2.108246 1_555
B7_2 Rh7_2 2.179083 1_555
B7_2 Rh7_3 2.179083 1_554
B7_2 Rh35_2 2.199004 1_555
B7_2 Rh35_3 2.199004 1_554
B7_2 Zn0_2 2.562745 1_555
B7_2 Zn7_2 2.781740 1_555
B7_3 Rh11_2 2.108246 1_555
B7_3 Rh11_3 2.108246 1_555
B7_3 Rh7_2 2.179083 1_555
B7_3 Rh7_3 2.179083 1_555
B7_3 Rh35_2 2.199004 1_555
B7_3 Rh35_3 2.199004 1_555
B7_3 Zn0_3 2.562745 1_555
B7_3 Zn7_3 2.781740 1_555
B7_4 Rh11_4 2.108246 1_555
B7_4 Rh11_5 2.108246 1_554
B7_4 Rh7_4 2.179083 1_555
B7_4 Rh7_5 2.179083 1_554
B7_4 Rh35_4 2.199004 1_555
B7_4 Rh35_5 2.199004 1_554
B7_4 Zn0_4 2.562745 1_555
B7_4 Zn7_4 2.781740 1_555
B7_5 Rh11_4 2.108246 1_555
B7_5 Rh11_5 2.108246 1_555
B7_5 Rh7_4 2.179083 1_555
B7_5 Rh7_5 2.179083 1_555
B7_5 Rh35_4 2.199004 1_555
B7_5 Rh35_5 2.199004 1_555
B7_5 Zn0_5 2.562745 1_555
B7_5 Zn7_5 2.781740 1_555
B7_6 Rh11_6 2.108246 1_555
B7_6 Rh11_7 2.108246 1_554
B7_6 Rh7_6 2.179083 1_555
B7_6 Rh7_7 2.179083 1_554
B7_6 Rh35_6 2.199004 1_555
B7_6 Rh35_7 2.199004 1_554
B7_6 Zn0_6 2.562745 1_555
B7_6 Zn7_6 2.781740 1_555
B7_7 Rh11_6 2.108246 1_555
B7_7 Rh11_7 2.108246 1_555
B7_7 Rh7_6 2.179083 1_555
B7_7 Rh7_7 2.179083 1_555
B7_7 Rh35_6 2.199004 1_555
B7_7 Rh35_7 2.199004 1_555
B7_7 Zn0_7 2.562745 1_555
B7_7 Zn7_7 2.781740 1_555
B8_0 Rh16_0 2.103391 1_555
B8_0 Rh16_1 2.103391 1_554
B8_0 Rh24_0 2.158884 1_555
B8_0 Rh24_1 2.158884 1_554
B8_0 Rh0_0 2.219678 1_555
B8_0 Rh0_1 2.219678 1_554
B8_0 Zn15_0 2.648194 1_555
B8_0 Zn4_0 2.756491 1_555
B8_0 Zn6_2 2.761989 1_545
B8_1 Rh16_1 2.103391 1_555
B8_1 Rh16_0 2.103391 1_555
B8_1 Rh24_0 2.158884 1_555
B8_1 Rh24_1 2.158884 1_555
B8_1 Rh0_0 2.219678 1_555
B8_1 Rh0_1 2.219678 1_555
B8_1 Zn15_1 2.648194 1_555
B8_1 Zn4_1 2.756491 1_555
B8_1 Zn6_3 2.761989 1_545
B8_2 Rh16_2 2.103391 1_555
B8_2 Rh16_3 2.103391 1_554
B8_2 Rh24_3 2.158884 1_554
B8_2 Rh24_2 2.158884 1_555
B8_2 Rh0_2 2.219678 1_555
B8_2 Rh0_3 2.219678 1_554
B8_2 Zn15_2 2.648194 1_555
B8_2 Zn4_2 2.756491 1_555
B8_2 Zn6_0 2.761989 1_555
B8_3 Rh16_2 2.103391 1_555
B8_3 Rh16_3 2.103391 1_555
B8_3 Rh24_2 2.158884 1_555
B8_3 Rh24_3 2.158884 1_555
B8_3 Rh0_2 2.219678 1_555
B8_3 Rh0_3 2.219678 1_555
B8_3 Zn15_3 2.648194 1_555
B8_3 Zn4_3 2.756491 1_555
B8_3 Zn6_1 2.761989 1_555
B8_4 Rh16_4 2.103391 1_555
B8_4 Rh16_5 2.103391 1_554
B8_4 Rh24_4 2.158884 1_555
B8_4 Rh24_5 2.158884 1_554
B8_4 Rh0_4 2.219678 1_555
B8_4 Rh0_5 2.219678 1_554
B8_4 Zn15_4 2.648194 1_555
B8_4 Zn4_4 2.756491 1_555
B8_4 Zn6_6 2.761989 1_545
B8_5 Rh16_4 2.103391 1_555
B8_5 Rh16_5 2.103391 1_555
B8_5 Rh24_4 2.158884 1_555
B8_5 Rh24_5 2.158884 1_555
B8_5 Rh0_4 2.219678 1_555
B8_5 Rh0_5 2.219678 1_555
B8_5 Zn15_5 2.648194 1_555
B8_5 Zn4_5 2.756491 1_555
B8_5 Zn6_7 2.761989 1_545
B8_6 Rh16_6 2.103391 1_555
B8_6 Rh16_7 2.103391 1_554
B8_6 Rh24_7 2.158884 1_554
B8_6 Rh24_6 2.158884 1_555
B8_6 Rh0_7 2.219678 1_554
B8_6 Rh0_6 2.219678 1_555
B8_6 Zn15_6 2.648194 1_555
B8_6 Zn4_6 2.756491 1_555
B8_6 Zn6_4 2.761989 1_555
B8_7 Rh16_6 2.103391 1_555
B8_7 Rh16_7 2.103391 1_555
B8_7 Rh24_6 2.158884 1_555
B8_7 Rh24_7 2.158884 1_555
B8_7 Rh0_7 2.219678 1_555
B8_7 Rh0_6 2.219678 1_555
B8_7 Zn15_7 2.648194 1_555
B8_7 Zn4_7 2.756491 1_555
B8_7 Zn6_5 2.761989 1_555
B9_0 Rh17_1 2.103391 1_554
B9_0 Rh17_0 2.103391 1_555
B9_0 Rh25_0 2.158884 1_555
B9_0 Rh25_1 2.158884 1_554
B9_0 Rh1_0 2.219678 1_555
B9_0 Rh1_1 2.219678 1_554
B9_0 Zn14_0 2.648194 1_555
B9_0 Zn5_0 2.756491 1_555
B9_0 Zn8_2 2.761989 1_555
B9_1 Rh17_0 2.103391 1_555
B9_1 Rh17_1 2.103391 1_555
B9_1 Rh25_0 2.158884 1_555
B9_1 Rh25_1 2.158884 1_555
B9_1 Rh1_0 2.219678 1_555
B9_1 Rh1_1 2.219678 1_555
B9_1 Zn14_1 2.648194 1_555
B9_1 Zn5_1 2.756491 1_555
B9_1 Zn8_3 2.761989 1_555
B9_2 Rh17_2 2.103391 1_555
B9_2 Rh17_3 2.103391 1_554
B9_2 Rh25_2 2.158884 1_555
B9_2 Rh25_3 2.158884 1_554
B9_2 Rh1_2 2.219678 1_555
B9_2 Rh1_3 2.219678 1_554
B9_2 Zn14_2 2.648194 1_555
B9_2 Zn5_2 2.756491 1_555
B9_2 Zn8_0 2.761989 1_565
B9_3 Rh17_2 2.103391 1_555
B9_3 Rh17_3 2.103391 1_555
B9_3 Rh25_2 2.158884 1_555
B9_3 Rh25_3 2.158884 1_555
B9_3 Rh1_2 2.219678 1_555
B9_3 Rh1_3 2.219678 1_555
B9_3 Zn14_3 2.648194 1_555
B9_3 Zn5_3 2.756491 1_555
B9_3 Zn8_1 2.761989 1_565
B9_4 Rh17_4 2.103391 1_555
B9_4 Rh17_5 2.103391 1_554
B9_4 Rh25_4 2.158884 1_555
B9_4 Rh25_5 2.158884 1_554
B9_4 Rh1_4 2.219678 1_555
B9_4 Rh1_5 2.219678 1_554
B9_4 Zn14_4 2.648194 1_555
B9_4 Zn5_4 2.756491 1_555
B9_4 Zn8_6 2.761989 1_555
B9_5 Rh17_4 2.103391 1_555
B9_5 Rh17_5 2.103391 1_555
B9_5 Rh25_4 2.158884 1_555
B9_5 Rh25_5 2.158884 1_555
B9_5 Rh1_4 2.219678 1_555
B9_5 Rh1_5 2.219678 1_555
B9_5 Zn14_5 2.648194 1_555
B9_5 Zn5_5 2.756491 1_555
B9_5 Zn8_7 2.761989 1_555
B9_6 Rh17_6 2.103391 1_555
B9_6 Rh17_7 2.103391 1_554
B9_6 Rh25_6 2.158884 1_555
B9_6 Rh25_7 2.158884 1_554
B9_6 Rh1_7 2.219678 1_554
B9_6 Rh1_6 2.219678 1_555
B9_6 Zn14_6 2.648194 1_555
B9_6 Zn5_6 2.756491 1_555
B9_6 Zn8_4 2.761989 1_565
B9_7 Rh17_6 2.103391 1_555
B9_7 Rh17_7 2.103391 1_555
B9_7 Rh25_6 2.158884 1_555
B9_7 Rh25_7 2.158884 1_555
B9_7 Rh1_7 2.219678 1_555
B9_7 Rh1_6 2.219678 1_555
B9_7 Zn14_7 2.648194 1_555
B9_7 Zn5_7 2.756491 1_555
B9_7 Zn8_5 2.761989 1_565
B10_0 Rh18_0 2.103391 1_555
B10_0 Rh18_1 2.103391 1_554
B10_0 Rh26_1 2.158884 1_554
B10_0 Rh26_0 2.158884 1_555
B10_0 Rh2_0 2.219678 1_555
B10_0 Rh2_1 2.219678 1_554
B10_0 Zn12_0 2.648194 1_555
B10_0 Zn6_0 2.756491 1_555
B10_0 Zn5_4 2.761989 1_455
B10_1 Rh18_0 2.103391 1_555
B10_1 Rh18_1 2.103391 1_555
B10_1 Rh26_0 2.158884 1_555
B10_1 Rh26_1 2.158884 1_555
B10_1 Rh2_0 2.219678 1_555
B10_1 Rh2_1 2.219678 1_555
B10_1 Zn12_1 2.648194 1_555
B10_1 Zn6_1 2.756491 1_555
B10_1 Zn5_5 2.761989 1_455
B10_2 Rh18_2 2.103391 1_555
B10_2 Rh18_3 2.103391 1_554
B10_2 Rh26_2 2.158884 1_555
B10_2 Rh26_3 2.158884 1_554
B10_2 Rh2_2 2.219678 1_555
B10_2 Rh2_3 2.219678 1_554
B10_2 Zn12_2 2.648194 1_555
B10_2 Zn6_2 2.756491 1_555
B10_2 Zn5_6 2.761989 1_455
B10_3 Rh18_2 2.103391 1_555
B10_3 Rh18_3 2.103391 1_555
B10_3 Rh26_2 2.158884 1_555
B10_3 Rh26_3 2.158884 1_555
B10_3 Rh2_2 2.219678 1_555
B10_3 Rh2_3 2.219678 1_555
B10_3 Zn12_3 2.648194 1_555
B10_3 Zn6_3 2.756491 1_555
B10_3 Zn5_7 2.761989 1_455
B10_4 Rh18_4 2.103391 1_555
B10_4 Rh18_5 2.103391 1_554
B10_4 Rh26_4 2.158884 1_555
B10_4 Rh26_5 2.158884 1_554
B10_4 Rh2_4 2.219678 1_555
B10_4 Rh2_5 2.219678 1_554
B10_4 Zn12_4 2.648194 1_555
B10_4 Zn6_4 2.756491 1_555
B10_4 Zn5_0 2.761989 1_555
B10_5 Rh18_4 2.103391 1_555
B10_5 Rh18_5 2.103391 1_555
B10_5 Rh26_4 2.158884 1_555
B10_5 Rh26_5 2.158884 1_555
B10_5 Rh2_4 2.219678 1_555
B10_5 Rh2_5 2.219678 1_555
B10_5 Zn12_5 2.648194 1_555
B10_5 Zn6_5 2.756491 1_555
B10_5 Zn5_1 2.761989 1_555
B10_6 Rh18_7 2.103391 1_554
B10_6 Rh18_6 2.103391 1_555
B10_6 Rh26_7 2.158884 1_554
B10_6 Rh26_6 2.158884 1_555
B10_6 Rh2_7 2.219678 1_554
B10_6 Rh2_6 2.219678 1_555
B10_6 Zn12_6 2.648194 1_555
B10_6 Zn6_6 2.756491 1_555
B10_6 Zn5_2 2.761989 1_555
B10_7 Rh18_6 2.103391 1_555
B10_7 Rh18_7 2.103391 1_555
B10_7 Rh26_6 2.158884 1_555
B10_7 Rh26_7 2.158884 1_555
B10_7 Rh2_7 2.219678 1_555
B10_7 Rh2_6 2.219678 1_555
B10_7 Zn12_7 2.648194 1_555
B10_7 Zn6_7 2.756491 1_555
B10_7 Zn5_3 2.761989 1_555
B11_0 Rh19_0 2.103391 1_555
B11_0 Rh19_1 2.103391 1_554
B11_0 Rh27_1 2.158884 1_554
B11_0 Rh27_0 2.158884 1_555
B11_0 Rh3_0 2.219678 1_555
B11_0 Rh3_1 2.219678 1_554
B11_0 Zn13_0 2.648194 1_555
B11_0 Zn7_0 2.756491 1_555
B11_0 Zn10_0 2.761989 1_555
B11_1 Rh19_1 2.103391 1_555
B11_1 Rh19_0 2.103391 1_555
B11_1 Rh27_0 2.158884 1_555
B11_1 Rh27_1 2.158884 1_555
B11_1 Rh3_0 2.219678 1_555
B11_1 Rh3_1 2.219678 1_555
B11_1 Zn13_1 2.648194 1_555
B11_1 Zn7_1 2.756491 1_555
B11_1 Zn10_1 2.761989 1_555
B11_2 Rh19_2 2.103391 1_555
B11_2 Rh19_3 2.103391 1_554
B11_2 Rh27_3 2.158884 1_554
B11_2 Rh27_2 2.158884 1_555
B11_2 Rh3_2 2.219678 1_555
B11_2 Rh3_3 2.219678 1_554
B11_2 Zn13_2 2.648194 1_555
B11_2 Zn7_2 2.756491 1_555
B11_2 Zn10_2 2.761989 1_555
B11_3 Rh19_2 2.103391 1_555
B11_3 Rh19_3 2.103391 1_555
B11_3 Rh27_2 2.158884 1_555
B11_3 Rh27_3 2.158884 1_555
B11_3 Rh3_2 2.219678 1_555
B11_3 Rh3_3 2.219678 1_555
B11_3 Zn13_3 2.648194 1_555
B11_3 Zn7_3 2.756491 1_555
B11_3 Zn10_3 2.761989 1_555
B11_4 Rh19_4 2.103391 1_555
B11_4 Rh19_5 2.103391 1_554
B11_4 Rh27_4 2.158884 1_555
B11_4 Rh27_5 2.158884 1_554
B11_4 Rh3_4 2.219678 1_555
B11_4 Rh3_5 2.219678 1_554
B11_4 Zn13_4 2.648194 1_555
B11_4 Zn7_4 2.756491 1_555
B11_4 Zn10_4 2.761989 1_555
B11_5 Rh19_4 2.103391 1_555
B11_5 Rh19_5 2.103391 1_555
B11_5 Rh27_4 2.158884 1_555
B11_5 Rh27_5 2.158884 1_555
B11_5 Rh3_4 2.219678 1_555
B11_5 Rh3_5 2.219678 1_555
B11_5 Zn13_5 2.648194 1_555
B11_5 Zn7_5 2.756491 1_555
B11_5 Zn10_5 2.761989 1_555
B11_6 Rh19_6 2.103391 1_555
B11_6 Rh19_7 2.103391 1_554
B11_6 Rh27_6 2.158884 1_555
B11_6 Rh27_7 2.158884 1_554
B11_6 Rh3_6 2.219678 1_555
B11_6 Rh3_7 2.219678 1_554
B11_6 Zn13_6 2.648194 1_555
B11_6 Zn7_6 2.756491 1_555
B11_6 Zn10_6 2.761989 1_555
B11_7 Rh19_6 2.103391 1_555
B11_7 Rh19_7 2.103391 1_555
B11_7 Rh27_6 2.158884 1_555
B11_7 Rh27_7 2.158884 1_555
B11_7 Rh3_6 2.219678 1_555
B11_7 Rh3_7 2.219678 1_555
B11_7 Zn13_7 2.648194 1_555
B11_7 Zn7_7 2.756491 1_555
B11_7 Zn10_7 2.761989 1_555
B12_0 Rh20_0 2.103391 1_555
B12_0 Rh20_1 2.103391 1_554
B12_0 Rh28_0 2.158884 1_555
B12_0 Rh28_1 2.158884 1_554
B12_0 Rh4_0 2.219678 1_555
B12_0 Rh4_1 2.219678 1_554
B12_0 Zn13_0 2.648194 1_555
B12_0 Zn8_0 2.756491 1_555
B12_0 Zn4_4 2.761989 1_555
B12_1 Rh20_0 2.103391 1_555
B12_1 Rh20_1 2.103391 1_555
B12_1 Rh28_0 2.158884 1_555
B12_1 Rh28_1 2.158884 1_555
B12_1 Rh4_0 2.219678 1_555
B12_1 Rh4_1 2.219678 1_555
B12_1 Zn13_1 2.648194 1_555
B12_1 Zn8_1 2.756491 1_555
B12_1 Zn4_5 2.761989 1_555
B12_2 Rh20_3 2.103391 1_554
B12_2 Rh20_2 2.103391 1_555
B12_2 Rh28_3 2.158884 1_554
B12_2 Rh28_2 2.158884 1_555
B12_2 Rh4_2 2.219678 1_555
B12_2 Rh4_3 2.219678 1_554
B12_2 Zn13_2 2.648194 1_555
B12_2 Zn8_2 2.756491 1_555
B12_2 Zn4_6 2.761989 1_555
B12_3 Rh20_2 2.103391 1_555
B12_3 Rh20_3 2.103391 1_555
B12_3 Rh28_3 2.158884 1_555
B12_3 Rh28_2 2.158884 1_555
B12_3 Rh4_2 2.219678 1_555
B12_3 Rh4_3 2.219678 1_555
B12_3 Zn13_3 2.648194 1_555
B12_3 Zn8_3 2.756491 1_555
B12_3 Zn4_7 2.761989 1_555
B12_4 Rh20_5 2.103391 1_554
B12_4 Rh20_4 2.103391 1_555
B12_4 Rh28_4 2.158884 1_555
B12_4 Rh28_5 2.158884 1_554
B12_4 Rh4_5 2.219678 1_554
B12_4 Rh4_4 2.219678 1_555
B12_4 Zn13_4 2.648194 1_555
B12_4 Zn8_4 2.756491 1_555
B12_4 Zn4_0 2.761989 1_655
B12_5 Rh20_4 2.103391 1_555
B12_5 Rh20_5 2.103391 1_555
B12_5 Rh28_4 2.158884 1_555
B12_5 Rh28_5 2.158884 1_555
B12_5 Rh4_4 2.219678 1_555
B12_5 Rh4_5 2.219678 1_555
B12_5 Zn13_5 2.648194 1_555
B12_5 Zn8_5 2.756491 1_555
B12_5 Zn4_1 2.761989 1_655
B12_6 Rh20_6 2.103391 1_555
B12_6 Rh20_7 2.103391 1_554
B12_6 Rh28_6 2.158884 1_555
B12_6 Rh28_7 2.158884 1_554
B12_6 Rh4_7 2.219678 1_554
B12_6 Rh4_6 2.219678 1_555
B12_6 Zn13_6 2.648194 1_555
B12_6 Zn8_6 2.756491 1_555
B12_6 Zn4_2 2.761989 1_655
B12_7 Rh20_6 2.103391 1_555
B12_7 Rh20_7 2.103391 1_555
B12_7 Rh28_6 2.158884 1_555
B12_7 Rh28_7 2.158884 1_555
B12_7 Rh4_7 2.219678 1_555
B12_7 Rh4_6 2.219678 1_555
B12_7 Zn13_7 2.648194 1_555
B12_7 Zn8_7 2.756491 1_555
B12_7 Zn4_3 2.761989 1_655
B13_0 Rh21_0 2.103391 1_555
B13_0 Rh21_1 2.103391 1_554
B13_0 Rh29_1 2.158884 1_554
B13_0 Rh29_0 2.158884 1_555
B13_0 Rh5_0 2.219678 1_555
B13_0 Rh5_1 2.219678 1_554
B13_0 Zn12_0 2.648194 1_555
B13_0 Zn9_0 2.756491 1_555
B13_0 Zn11_0 2.761989 1_555
B13_1 Rh21_0 2.103391 1_555
B13_1 Rh21_1 2.103391 1_555
B13_1 Rh29_0 2.158884 1_555
B13_1 Rh29_1 2.158884 1_555
B13_1 Rh5_0 2.219678 1_555
B13_1 Rh5_1 2.219678 1_555
B13_1 Zn12_1 2.648194 1_555
B13_1 Zn9_1 2.756491 1_555
B13_1 Zn11_1 2.761989 1_555
B13_2 Rh21_3 2.103391 1_554
B13_2 Rh21_2 2.103391 1_555
B13_2 Rh29_2 2.158884 1_555
B13_2 Rh29_3 2.158884 1_554
B13_2 Rh5_2 2.219678 1_555
B13_2 Rh5_3 2.219678 1_554
B13_2 Zn12_2 2.648194 1_555
B13_2 Zn9_2 2.756491 1_555
B13_2 Zn11_2 2.761989 1_555
B13_3 Rh21_3 2.103391 1_555
B13_3 Rh21_2 2.103391 1_555
B13_3 Rh29_2 2.158884 1_555
B13_3 Rh29_3 2.158884 1_555
B13_3 Rh5_2 2.219678 1_555
B13_3 Rh5_3 2.219678 1_555
B13_3 Zn12_3 2.648194 1_555
B13_3 Zn9_3 2.756491 1_555
B13_3 Zn11_3 2.761989 1_555
B13_4 Rh21_4 2.103391 1_555
B13_4 Rh21_5 2.103391 1_554
B13_4 Rh29_5 2.158884 1_554
B13_4 Rh29_4 2.158884 1_555
B13_4 Rh5_4 2.219678 1_555
B13_4 Rh5_5 2.219678 1_554
B13_4 Zn12_4 2.648194 1_555
B13_4 Zn9_4 2.756491 1_555
B13_4 Zn11_4 2.761989 1_555
B13_5 Rh21_4 2.103391 1_555
B13_5 Rh21_5 2.103391 1_555
B13_5 Rh29_5 2.158884 1_555
B13_5 Rh29_4 2.158884 1_555
B13_5 Rh5_4 2.219678 1_555
B13_5 Rh5_5 2.219678 1_555
B13_5 Zn12_5 2.648194 1_555
B13_5 Zn9_5 2.756491 1_555
B13_5 Zn11_5 2.761989 1_555
B13_6 Rh21_6 2.103391 1_555
B13_6 Rh21_7 2.103391 1_554
B13_6 Rh29_6 2.158884 1_555
B13_6 Rh29_7 2.158884 1_554
B13_6 Rh5_6 2.219678 1_555
B13_6 Rh5_7 2.219678 1_554
B13_6 Zn12_6 2.648194 1_555
B13_6 Zn9_6 2.756491 1_555
B13_6 Zn11_6 2.761989 1_555
B13_7 Rh21_6 2.103391 1_555
B13_7 Rh21_7 2.103391 1_555
B13_7 Rh29_6 2.158884 1_555
B13_7 Rh29_7 2.158884 1_555
B13_7 Rh5_6 2.219678 1_555
B13_7 Rh5_7 2.219678 1_555
B13_7 Zn12_7 2.648194 1_555
B13_7 Zn9_7 2.756491 1_555
B13_7 Zn11_7 2.761989 1_555
B14_0 Rh22_0 2.103391 1_555
B14_0 Rh22_1 2.103391 1_554
B14_0 Rh30_0 2.158884 1_555
B14_0 Rh30_1 2.158884 1_554
B14_0 Rh6_1 2.219678 1_554
B14_0 Rh6_0 2.219678 1_555
B14_0 Zn14_0 2.648194 1_555
B14_0 Zn10_0 2.756491 1_555
B14_0 Zn9_0 2.761989 1_555
B14_1 Rh22_0 2.103391 1_555
B14_1 Rh22_1 2.103391 1_555
B14_1 Rh30_0 2.158884 1_555
B14_1 Rh30_1 2.158884 1_555
B14_1 Rh6_1 2.219678 1_555
B14_1 Rh6_0 2.219678 1_555
B14_1 Zn14_1 2.648194 1_555
B14_1 Zn10_1 2.756491 1_555
B14_1 Zn9_1 2.761989 1_555
B14_2 Rh22_3 2.103391 1_554
B14_2 Rh22_2 2.103391 1_555
B14_2 Rh30_2 2.158884 1_555
B14_2 Rh30_3 2.158884 1_554
B14_2 Rh6_2 2.219678 1_555
B14_2 Rh6_3 2.219678 1_554
B14_2 Zn14_2 2.648194 1_555
B14_2 Zn10_2 2.756491 1_555
B14_2 Zn9_2 2.761989 1_555
B14_3 Rh22_2 2.103391 1_555
B14_3 Rh22_3 2.103391 1_555
B14_3 Rh30_2 2.158884 1_555
B14_3 Rh30_3 2.158884 1_555
B14_3 Rh6_2 2.219678 1_555
B14_3 Rh6_3 2.219678 1_555
B14_3 Zn14_3 2.648194 1_555
B14_3 Zn10_3 2.756491 1_555
B14_3 Zn9_3 2.761989 1_555
B14_4 Rh22_4 2.103391 1_555
B14_4 Rh22_5 2.103391 1_554
B14_4 Rh30_4 2.158884 1_555
B14_4 Rh30_5 2.158884 1_554
B14_4 Rh6_4 2.219678 1_555
B14_4 Rh6_5 2.219678 1_554
B14_4 Zn14_4 2.648194 1_555
B14_4 Zn10_4 2.756491 1_555
B14_4 Zn9_4 2.761989 1_555
B14_5 Rh22_4 2.103391 1_555
B14_5 Rh22_5 2.103391 1_555
B14_5 Rh30_4 2.158884 1_555
B14_5 Rh30_5 2.158884 1_555
B14_5 Rh6_4 2.219678 1_555
B14_5 Rh6_5 2.219678 1_555
B14_5 Zn14_5 2.648194 1_555
B14_5 Zn10_5 2.756491 1_555
B14_5 Zn9_5 2.761989 1_555
B14_6 Rh22_6 2.103391 1_555
B14_6 Rh22_7 2.103391 1_554
B14_6 Rh30_6 2.158884 1_555
B14_6 Rh30_7 2.158884 1_554
B14_6 Rh6_6 2.219678 1_555
B14_6 Rh6_7 2.219678 1_554
B14_6 Zn14_6 2.648194 1_555
B14_6 Zn10_6 2.756491 1_555
B14_6 Zn9_6 2.761989 1_555
B14_7 Rh22_6 2.103391 1_555
B14_7 Rh22_7 2.103391 1_555
B14_7 Rh30_6 2.158884 1_555
B14_7 Rh30_7 2.158884 1_555
B14_7 Rh6_6 2.219678 1_555
B14_7 Rh6_7 2.219678 1_555
B14_7 Zn14_7 2.648194 1_555
B14_7 Zn10_7 2.756491 1_555
B14_7 Zn9_7 2.761989 1_555
B15_0 Rh23_0 2.103391 1_555
B15_0 Rh23_1 2.103391 1_554
B15_0 Rh31_1 2.158884 1_554
B15_0 Rh31_0 2.158884 1_555
B15_0 Rh7_1 2.219678 1_554
B15_0 Rh7_0 2.219678 1_555
B15_0 Zn15_0 2.648194 1_555
B15_0 Zn11_0 2.756491 1_555
B15_0 Zn7_0 2.761989 1_555
B15_1 Rh23_0 2.103391 1_555
B15_1 Rh23_1 2.103391 1_555
B15_1 Rh31_0 2.158884 1_555
B15_1 Rh31_1 2.158884 1_555
B15_1 Rh7_0 2.219678 1_555
B15_1 Rh7_1 2.219678 1_555
B15_1 Zn15_1 2.648194 1_555
B15_1 Zn11_1 2.756491 1_555
B15_1 Zn7_1 2.761989 1_555
B15_2 Rh23_2 2.103391 1_555
B15_2 Rh23_3 2.103391 1_554
B15_2 Rh31_2 2.158884 1_555
B15_2 Rh31_3 2.158884 1_554
B15_2 Rh7_2 2.219678 1_555
B15_2 Rh7_3 2.219678 1_554
B15_2 Zn15_2 2.648194 1_555
B15_2 Zn11_2 2.756491 1_555
B15_2 Zn7_2 2.761989 1_555
B15_3 Rh23_2 2.103391 1_555
B15_3 Rh23_3 2.103391 1_555
B15_3 Rh31_2 2.158884 1_555
B15_3 Rh31_3 2.158884 1_555
B15_3 Rh7_2 2.219678 1_555
B15_3 Rh7_3 2.219678 1_555
B15_3 Zn15_3 2.648194 1_555
B15_3 Zn11_3 2.756491 1_555
B15_3 Zn7_3 2.761989 1_555
B15_4 Rh23_4 2.103391 1_555
B15_4 Rh23_5 2.103391 1_554
B15_4 Rh31_5 2.158884 1_554
B15_4 Rh31_4 2.158884 1_555
B15_4 Rh7_4 2.219678 1_555
B15_4 Rh7_5 2.219678 1_554
B15_4 Zn15_4 2.648194 1_555
B15_4 Zn11_4 2.756491 1_555
B15_4 Zn7_4 2.761989 1_555
B15_5 Rh23_4 2.103391 1_555
B15_5 Rh23_5 2.103391 1_555
B15_5 Rh31_4 2.158884 1_555
B15_5 Rh31_5 2.158884 1_555
B15_5 Rh7_4 2.219678 1_555
B15_5 Rh7_5 2.219678 1_555
B15_5 Zn15_5 2.648194 1_555
B15_5 Zn11_5 2.756491 1_555
B15_5 Zn7_5 2.761989 1_555
B15_6 Rh23_7 2.103391 1_554
B15_6 Rh23_6 2.103391 1_555
B15_6 Rh31_6 2.158884 1_555
B15_6 Rh31_7 2.158884 1_554
B15_6 Rh7_7 2.219678 1_554
B15_6 Rh7_6 2.219678 1_555
B15_6 Zn15_6 2.648194 1_555
B15_6 Zn11_6 2.756491 1_555
B15_6 Zn7_6 2.761989 1_555
B15_7 Rh23_6 2.103391 1_555
B15_7 Rh23_7 2.103391 1_555
B15_7 Rh31_6 2.158884 1_555
B15_7 Rh31_7 2.158884 1_555
B15_7 Rh7_7 2.219678 1_555
B15_7 Rh7_6 2.219678 1_555
B15_7 Zn15_7 2.648194 1_555
B15_7 Zn11_7 2.756491 1_555
B15_7 Zn7_7 2.761989 1_555
Rh0_0 Zn15_1 2.658502 1_555
Rh0_0 Zn15_0 2.658502 1_555
Rh0_0 Zn6_2 2.822853 1_545
Rh0_0 Zn6_3 2.822853 1_545
Rh0_1 Zn15_1 2.658502 1_555
Rh0_1 Zn15_0 2.658502 1_556
Rh0_1 Zn6_2 2.822853 1_546
Rh0_1 Zn6_3 2.822853 1_545
Rh0_2 Zn15_2 2.658502 1_555
Rh0_2 Zn15_3 2.658502 1_555
Rh0_2 Zn6_0 2.822853 1_555
Rh0_2 Zn6_1 2.822853 1_555
Rh0_3 Zn15_2 2.658502 1_556
Rh0_3 Zn15_3 2.658502 1_555
Rh0_3 Zn6_0 2.822853 1_556
Rh0_3 Zn6_1 2.822853 1_555
Rh0_4 Zn15_4 2.658502 1_555
Rh0_4 Zn15_5 2.658502 1_555
Rh0_4 Zn6_7 2.822853 1_545
Rh0_4 Zn6_6 2.822853 1_545
Rh0_5 Zn15_4 2.658502 1_556
Rh0_5 Zn15_5 2.658502 1_555
Rh0_5 Zn6_6 2.822853 1_546
Rh0_5 Zn6_7 2.822853 1_545
Rh0_6 Zn15_7 2.658502 1_555
Rh0_6 Zn15_6 2.658502 1_555
Rh0_6 Zn6_4 2.822853 1_555
Rh0_6 Zn6_5 2.822853 1_555
Rh0_7 Zn15_7 2.658502 1_555
Rh0_7 Zn15_6 2.658502 1_556
Rh0_7 Zn6_5 2.822853 1_555
Rh0_7 Zn6_4 2.822853 1_556
Rh1_0 Zn14_0 2.658502 1_555
Rh1_0 Zn14_1 2.658502 1_555
Rh1_0 Zn8_3 2.822853 1_555
Rh1_0 Zn8_2 2.822853 1_555
Rh1_1 Zn14_1 2.658502 1_555
Rh1_1 Zn14_0 2.658502 1_556
Rh1_1 Zn8_2 2.822853 1_556
Rh1_1 Zn8_3 2.822853 1_555
Rh1_2 Zn14_2 2.658502 1_555
Rh1_2 Zn14_3 2.658502 1_555
Rh1_2 Zn8_0 2.822853 1_565
Rh1_2 Zn8_1 2.822853 1_565
Rh1_3 Zn14_2 2.658502 1_556
Rh1_3 Zn14_3 2.658502 1_555
Rh1_3 Zn8_0 2.822853 1_566
Rh1_3 Zn8_1 2.822853 1_565
Rh1_4 Zn14_5 2.658502 1_555
Rh1_4 Zn14_4 2.658502 1_555
Rh1_4 Zn8_7 2.822853 1_555
Rh1_4 Zn8_6 2.822853 1_555
Rh1_5 Zn14_4 2.658502 1_556
Rh1_5 Zn14_5 2.658502 1_555
Rh1_5 Zn8_6 2.822853 1_556
Rh1_5 Zn8_7 2.822853 1_555
Rh1_6 Zn14_6 2.658502 1_555
Rh1_6 Zn14_7 2.658502 1_555
Rh1_6 Zn8_4 2.822853 1_565
Rh1_6 Zn8_5 2.822853 1_565
Rh1_7 Zn14_6 2.658502 1_556
Rh1_7 Zn14_7 2.658502 1_555
Rh1_7 Zn8_5 2.822853 1_565
Rh1_7 Zn8_4 2.822853 1_566
Rh2_0 Zn12_1 2.658502 1_555
Rh2_0 Zn12_0 2.658502 1_555
Rh2_0 Zn5_4 2.822853 1_455
Rh2_0 Zn5_5 2.822853 1_455
Rh2_1 Zn12_1 2.658502 1_555
Rh2_1 Zn12_0 2.658502 1_556
Rh2_1 Zn5_4 2.822853 1_456
Rh2_1 Zn5_5 2.822853 1_455
Rh2_2 Zn12_3 2.658502 1_555
Rh2_2 Zn12_2 2.658502 1_555
Rh2_2 Zn5_6 2.822853 1_455
Rh2_2 Zn5_7 2.822853 1_455
Rh2_3 Zn12_3 2.658502 1_555
Rh2_3 Zn12_2 2.658502 1_556
Rh2_3 Zn5_6 2.822853 1_456
Rh2_3 Zn5_7 2.822853 1_455
Rh2_4 Zn12_5 2.658502 1_555
Rh2_4 Zn12_4 2.658502 1_555
Rh2_4 Zn5_0 2.822853 1_555
Rh2_4 Zn5_1 2.822853 1_555
Rh2_5 Zn12_4 2.658502 1_556
Rh2_5 Zn12_5 2.658502 1_555
Rh2_5 Zn5_0 2.822853 1_556
Rh2_5 Zn5_1 2.822853 1_555
Rh2_6 Zn12_6 2.658502 1_555
Rh2_6 Zn12_7 2.658502 1_555
Rh2_6 Zn5_2 2.822853 1_555
Rh2_6 Zn5_3 2.822853 1_555
Rh2_7 Zn12_6 2.658502 1_556
Rh2_7 Zn12_7 2.658502 1_555
Rh2_7 Zn5_2 2.822853 1_556
Rh2_7 Zn5_3 2.822853 1_555
Rh3_0 Zn13_1 2.658502 1_555
Rh3_0 Zn13_0 2.658502 1_555
Rh3_0 Zn10_1 2.822853 1_555
Rh3_0 Zn10_0 2.822853 1_555
Rh3_1 Zn13_0 2.658502 1_556
Rh3_1 Zn13_1 2.658502 1_555
Rh3_1 Zn10_1 2.822853 1_555
Rh3_1 Zn10_0 2.822853 1_556
Rh3_2 Zn13_2 2.658502 1_555
Rh3_2 Zn13_3 2.658502 1_555
Rh3_2 Zn10_2 2.822853 1_555
Rh3_2 Zn10_3 2.822853 1_555
Rh3_3 Zn13_2 2.658502 1_556
Rh3_3 Zn13_3 2.658502 1_555
Rh3_3 Zn10_2 2.822853 1_556
Rh3_3 Zn10_3 2.822853 1_555
Rh3_4 Zn13_4 2.658502 1_555
Rh3_4 Zn13_5 2.658502 1_555
Rh3_4 Zn10_5 2.822853 1_555
Rh3_4 Zn10_4 2.822853 1_555
Rh3_5 Zn13_4 2.658502 1_556
Rh3_5 Zn13_5 2.658502 1_555
Rh3_5 Zn10_5 2.822853 1_555
Rh3_5 Zn10_4 2.822853 1_556
Rh3_6 Zn13_6 2.658502 1_555
Rh3_6 Zn13_7 2.658502 1_555
Rh3_6 Zn10_6 2.822853 1_555
Rh3_6 Zn10_7 2.822853 1_555
Rh3_7 Zn13_6 2.658502 1_556
Rh3_7 Zn13_7 2.658502 1_555
Rh3_7 Zn10_6 2.822853 1_556
Rh3_7 Zn10_7 2.822853 1_555
Rh4_0 Zn13_0 2.658502 1_555
Rh4_0 Zn13_1 2.658502 1_555
Rh4_0 Zn4_4 2.822853 1_555
Rh4_0 Zn4_5 2.822853 1_555
Rh4_1 Zn13_0 2.658502 1_556
Rh4_1 Zn13_1 2.658502 1_555
Rh4_1 Zn4_5 2.822853 1_555
Rh4_1 Zn4_4 2.822853 1_556
Rh4_2 Zn13_2 2.658502 1_555
Rh4_2 Zn13_3 2.658502 1_555
Rh4_2 Zn4_7 2.822853 1_555
Rh4_2 Zn4_6 2.822853 1_555
Rh4_3 Zn13_2 2.658502 1_556
Rh4_3 Zn13_3 2.658502 1_555
Rh4_3 Zn4_6 2.822853 1_556
Rh4_3 Zn4_7 2.822853 1_555
Rh4_4 Zn13_5 2.658502 1_555
Rh4_4 Zn13_4 2.658502 1_555
Rh4_4 Zn4_1 2.822853 1_655
Rh4_4 Zn4_0 2.822853 1_655
Rh4_5 Zn13_4 2.658502 1_556
Rh4_5 Zn13_5 2.658502 1_555
Rh4_5 Zn4_0 2.822853 1_656
Rh4_5 Zn4_1 2.822853 1_655
Rh4_6 Zn13_6 2.658502 1_555
Rh4_6 Zn13_7 2.658502 1_555
Rh4_6 Zn4_2 2.822853 1_655
Rh4_6 Zn4_3 2.822853 1_655
Rh4_7 Zn13_6 2.658502 1_556
Rh4_7 Zn13_7 2.658502 1_555
Rh4_7 Zn4_3 2.822853 1_655
Rh4_7 Zn4_2 2.822853 1_656
Rh5_0 Zn12_1 2.658502 1_555
Rh5_0 Zn12_0 2.658502 1_555
Rh5_0 Zn11_1 2.822853 1_555
Rh5_0 Zn11_0 2.822853 1_555
Rh5_1 Zn12_1 2.658502 1_555
Rh5_1 Zn12_0 2.658502 1_556
Rh5_1 Zn11_0 2.822853 1_556
Rh5_1 Zn11_1 2.822853 1_555
Rh5_2 Zn12_3 2.658502 1_555
Rh5_2 Zn12_2 2.658502 1_555
Rh5_2 Zn11_3 2.822853 1_555
Rh5_2 Zn11_2 2.822853 1_555
Rh5_3 Zn12_2 2.658502 1_556
Rh5_3 Zn12_3 2.658502 1_555
Rh5_3 Zn11_2 2.822853 1_556
Rh5_3 Zn11_3 2.822853 1_555
Rh5_4 Zn12_5 2.658502 1_555
Rh5_4 Zn12_4 2.658502 1_555
Rh5_4 Zn11_5 2.822853 1_555
Rh5_4 Zn11_4 2.822853 1_555
Rh5_5 Zn12_4 2.658502 1_556
Rh5_5 Zn12_5 2.658502 1_555
Rh5_5 Zn11_4 2.822853 1_556
Rh5_5 Zn11_5 2.822853 1_555
Rh5_6 Zn12_6 2.658502 1_555
Rh5_6 Zn12_7 2.658502 1_555
Rh5_6 Zn11_7 2.822853 1_555
Rh5_6 Zn11_6 2.822853 1_555
Rh5_7 Zn12_6 2.658502 1_556
Rh5_7 Zn12_7 2.658502 1_555
Rh5_7 Zn11_6 2.822853 1_556
Rh5_7 Zn11_7 2.822853 1_555
Rh6_0 Zn14_0 2.658502 1_555
Rh6_0 Zn14_1 2.658502 1_555
Rh6_0 Zn9_1 2.822853 1_555
Rh6_0 Zn9_0 2.822853 1_555
Rh6_1 Zn14_1 2.658502 1_555
Rh6_1 Zn14_0 2.658502 1_556
Rh6_1 Zn9_0 2.822853 1_556
Rh6_1 Zn9_1 2.822853 1_555
Rh6_2 Zn14_2 2.658502 1_555
Rh6_2 Zn14_3 2.658502 1_555
Rh6_2 Zn9_2 2.822853 1_555
Rh6_2 Zn9_3 2.822853 1_555
Rh6_3 Zn14_2 2.658502 1_556
Rh6_3 Zn14_3 2.658502 1_555
Rh6_3 Zn9_2 2.822853 1_556
Rh6_3 Zn9_3 2.822853 1_555
Rh6_4 Zn14_5 2.658502 1_555
Rh6_4 Zn14_4 2.658502 1_555
Rh6_4 Zn9_4 2.822853 1_555
Rh6_4 Zn9_5 2.822853 1_555
Rh6_5 Zn14_4 2.658502 1_556
Rh6_5 Zn14_5 2.658502 1_555
Rh6_5 Zn9_5 2.822853 1_555
Rh6_5 Zn9_4 2.822853 1_556
Rh6_6 Zn14_6 2.658502 1_555
Rh6_6 Zn14_7 2.658502 1_555
Rh6_6 Zn9_7 2.822853 1_555
Rh6_6 Zn9_6 2.822853 1_555
Rh6_7 Zn14_6 2.658502 1_556
Rh6_7 Zn14_7 2.658502 1_555
Rh6_7 Zn9_7 2.822853 1_555
Rh6_7 Zn9_6 2.822853 1_556
Rh7_0 Zn15_0 2.658502 1_555
Rh7_0 Zn15_1 2.658502 1_555
Rh7_0 Zn7_0 2.822853 1_555
Rh7_0 Zn7_1 2.822853 1_555
Rh7_1 Zn15_0 2.658502 1_556
Rh7_1 Zn15_1 2.658502 1_555
Rh7_1 Zn7_1 2.822853 1_555
Rh7_1 Zn7_0 2.822853 1_556
Rh7_2 Zn15_3 2.658502 1_555
Rh7_2 Zn15_2 2.658502 1_555
Rh7_2 Zn7_2 2.822853 1_555
Rh7_2 Zn7_3 2.822853 1_555
Rh7_3 Zn15_2 2.658502 1_556
Rh7_3 Zn15_3 2.658502 1_555
Rh7_3 Zn7_3 2.822853 1_555
Rh7_3 Zn7_2 2.822853 1_556
Rh7_4 Zn15_4 2.658502 1_555
Rh7_4 Zn15_5 2.658502 1_555
Rh7_4 Zn7_4 2.822853 1_555
Rh7_4 Zn7_5 2.822853 1_555
Rh7_5 Zn15_5 2.658502 1_555
Rh7_5 Zn15_4 2.658502 1_556
Rh7_5 Zn7_5 2.822853 1_555
Rh7_5 Zn7_4 2.822853 1_556
Rh7_6 Zn15_7 2.658502 1_555
Rh7_6 Zn15_6 2.658502 1_555
Rh7_6 Zn7_7 2.822853 1_555
Rh7_6 Zn7_6 2.822853 1_555
Rh7_7 Zn15_6 2.658502 1_556
Rh7_7 Zn15_7 2.658502 1_555
Rh7_7 Zn7_6 2.822853 1_556
Rh7_7 Zn7_7 2.822853 1_555
Rh8_0 Zn18_1 2.593584 1_555
Rh8_0 Zn18_0 2.593584 1_555
Rh8_0 Zn2_1 2.607931 1_555
Rh8_0 Zn2_0 2.607931 1_555
Rh8_0 Zn4_1 2.758659 1_555
Rh8_0 Zn4_0 2.758659 1_555
Rh8_1 Zn18_0 2.593584 1_556
Rh8_1 Zn18_1 2.593584 1_555
Rh8_1 Zn2_1 2.607931 1_555
Rh8_1 Zn2_0 2.607931 1_556
Rh8_1 Zn4_1 2.758659 1_555
Rh8_1 Zn4_0 2.758659 1_556
Rh8_2 Zn18_3 2.593584 1_555
Rh8_2 Zn18_2 2.593584 1_555
Rh8_2 Zn2_2 2.607931 1_555
Rh8_2 Zn2_3 2.607931 1_555
Rh8_2 Zn4_2 2.758659 1_555
Rh8_2 Zn4_3 2.758659 1_555
Rh8_3 Zn18_2 2.593584 1_556
Rh8_3 Zn18_3 2.593584 1_555
Rh8_3 Zn2_3 2.607931 1_555
Rh8_3 Zn2_2 2.607931 1_556
Rh8_3 Zn4_3 2.758659 1_555
Rh8_3 Zn4_2 2.758659 1_556
Rh8_4 Zn18_4 2.593584 1_555
Rh8_4 Zn18_5 2.593584 1_555
Rh8_4 Zn2_5 2.607931 1_555
Rh8_4 Zn2_4 2.607931 1_555
Rh8_4 Zn4_4 2.758659 1_555
Rh8_4 Zn4_5 2.758659 1_555
Rh8_5 Zn18_5 2.593584 1_555
Rh8_5 Zn18_4 2.593584 1_556
Rh8_5 Zn2_4 2.607931 1_556
Rh8_5 Zn2_5 2.607931 1_555
Rh8_5 Zn4_4 2.758659 1_556
Rh8_5 Zn4_5 2.758659 1_555
Rh8_6 Zn18_6 2.593584 1_555
Rh8_6 Zn18_7 2.593584 1_555
Rh8_6 Zn2_7 2.607931 1_555
Rh8_6 Zn2_6 2.607931 1_555
Rh8_6 Zn4_7 2.758659 1_555
Rh8_6 Zn4_6 2.758659 1_555
Rh8_7 Zn18_6 2.593584 1_556
Rh8_7 Zn18_7 2.593584 1_555
Rh8_7 Zn2_6 2.607931 1_556
Rh8_7 Zn2_7 2.607931 1_555
Rh8_7 Zn4_6 2.758659 1_556
Rh8_7 Zn4_7 2.758659 1_555
Rh9_0 Zn19_0 2.593584 1_555
Rh9_0 Zn19_1 2.593584 1_555
Rh9_0 Zn3_0 2.607931 1_555
Rh9_0 Zn3_1 2.607931 1_555
Rh9_0 Zn5_0 2.758659 1_555
Rh9_0 Zn5_1 2.758659 1_555
Rh9_1 Zn19_1 2.593584 1_555
Rh9_1 Zn19_0 2.593584 1_556
Rh9_1 Zn3_0 2.607931 1_556
Rh9_1 Zn3_1 2.607931 1_555
Rh9_1 Zn5_0 2.758659 1_556
Rh9_1 Zn5_1 2.758659 1_555
Rh9_2 Zn19_3 2.593584 1_555
Rh9_2 Zn19_2 2.593584 1_555
Rh9_2 Zn3_2 2.607931 1_555
Rh9_2 Zn3_3 2.607931 1_555
Rh9_2 Zn5_2 2.758659 1_555
Rh9_2 Zn5_3 2.758659 1_555
Rh9_3 Zn19_2 2.593584 1_556
Rh9_3 Zn19_3 2.593584 1_555
Rh9_3 Zn3_2 2.607931 1_556
Rh9_3 Zn3_3 2.607931 1_555
Rh9_3 Zn5_2 2.758659 1_556
Rh9_3 Zn5_3 2.758659 1_555
Rh9_4 Zn19_5 2.593584 1_555
Rh9_4 Zn19_4 2.593584 1_555
Rh9_4 Zn3_4 2.607931 1_555
Rh9_4 Zn3_5 2.607931 1_555
Rh9_4 Zn5_4 2.758659 1_555
Rh9_4 Zn5_5 2.758659 1_555
Rh9_5 Zn19_4 2.593584 1_556
Rh9_5 Zn19_5 2.593584 1_555
Rh9_5 Zn3_4 2.607931 1_556
Rh9_5 Zn3_5 2.607931 1_555
Rh9_5 Zn5_4 2.758659 1_556
Rh9_5 Zn5_5 2.758659 1_555
Rh9_6 Zn19_7 2.593584 1_555
Rh9_6 Zn19_6 2.593584 1_555
Rh9_6 Zn3_6 2.607931 1_555
Rh9_6 Zn3_7 2.607931 1_555
Rh9_6 Zn5_7 2.758659 1_555
Rh9_6 Zn5_6 2.758659 1_555
Rh9_7 Zn19_7 2.593584 1_555
Rh9_7 Zn19_6 2.593584 1_556
Rh9_7 Zn3_7 2.607931 1_555
Rh9_7 Zn3_6 2.607931 1_556
Rh9_7 Zn5_7 2.758659 1_555
Rh9_7 Zn5_6 2.758659 1_556
Rh10_0 Zn17_0 2.593584 1_555
Rh10_0 Zn17_1 2.593584 1_555
Rh10_0 Zn1_0 2.607931 1_555
Rh10_0 Zn1_1 2.607931 1_555
Rh10_0 Zn6_0 2.758659 1_555
Rh10_0 Zn6_1 2.758659 1_555
Rh10_1 Zn17_0 2.593584 1_556
Rh10_1 Zn17_1 2.593584 1_555
Rh10_1 Zn1_1 2.607931 1_555
Rh10_1 Zn1_0 2.607931 1_556
Rh10_1 Zn6_1 2.758659 1_555
Rh10_1 Zn6_0 2.758659 1_556
Rh10_2 Zn17_3 2.593584 1_555
Rh10_2 Zn17_2 2.593584 1_555
Rh10_2 Zn1_3 2.607931 1_555
Rh10_2 Zn1_2 2.607931 1_555
Rh10_2 Zn6_2 2.758659 1_555
Rh10_2 Zn6_3 2.758659 1_555
Rh10_3 Zn17_2 2.593584 1_556
Rh10_3 Zn17_3 2.593584 1_555
Rh10_3 Zn1_2 2.607931 1_556
Rh10_3 Zn1_3 2.607931 1_555
Rh10_3 Zn6_2 2.758659 1_556
Rh10_3 Zn6_3 2.758659 1_555
Rh10_4 Zn17_4 2.593584 1_555
Rh10_4 Zn17_5 2.593584 1_555
Rh10_4 Zn1_4 2.607931 1_555
Rh10_4 Zn1_5 2.607931 1_555
Rh10_4 Zn6_5 2.758659 1_555
Rh10_4 Zn6_4 2.758659 1_555
Rh10_5 Zn17_4 2.593584 1_556
Rh10_5 Zn17_5 2.593584 1_555
Rh10_5 Zn1_5 2.607931 1_555
Rh10_5 Zn1_4 2.607931 1_556
Rh10_5 Zn6_4 2.758659 1_556
Rh10_5 Zn6_5 2.758659 1_555
Rh10_6 Zn17_6 2.593584 1_555
Rh10_6 Zn17_7 2.593584 1_555
Rh10_6 Zn1_6 2.607931 1_555
Rh10_6 Zn1_7 2.607931 1_555
Rh10_6 Zn6_7 2.758659 1_555
Rh10_6 Zn6_6 2.758659 1_555
Rh10_7 Zn17_6 2.593584 1_556
Rh10_7 Zn17_7 2.593584 1_555
Rh10_7 Zn1_7 2.607931 1_555
Rh10_7 Zn1_6 2.607931 1_556
Rh10_7 Zn6_7 2.758659 1_555
Rh10_7 Zn6_6 2.758659 1_556
Rh11_0 Zn16_1 2.593584 1_555
Rh11_0 Zn16_0 2.593584 1_555
Rh11_0 Zn0_0 2.607931 1_555
Rh11_0 Zn0_1 2.607931 1_555
Rh11_0 Zn7_0 2.758659 1_555
Rh11_0 Zn7_1 2.758659 1_555
Rh11_1 Zn16_0 2.593584 1_556
Rh11_1 Zn16_1 2.593584 1_555
Rh11_1 Zn0_0 2.607931 1_556
Rh11_1 Zn0_1 2.607931 1_555
Rh11_1 Zn7_1 2.758659 1_555
Rh11_1 Zn7_0 2.758659 1_556
Rh11_2 Zn16_2 2.593584 1_555
Rh11_2 Zn16_3 2.593584 1_555
Rh11_2 Zn0_2 2.607931 1_555
Rh11_2 Zn0_3 2.607931 1_555
Rh11_2 Zn7_2 2.758659 1_555
Rh11_2 Zn7_3 2.758659 1_555
Rh11_3 Zn16_3 2.593584 1_555
Rh11_3 Zn16_2 2.593584 1_556
Rh11_3 Zn0_2 2.607931 1_556
Rh11_3 Zn0_3 2.607931 1_555
Rh11_3 Zn7_2 2.758659 1_556
Rh11_3 Zn7_3 2.758659 1_555
Rh11_4 Zn16_5 2.593584 1_555
Rh11_4 Zn16_4 2.593584 1_555
Rh11_4 Zn0_4 2.607931 1_555
Rh11_4 Zn0_5 2.607931 1_555
Rh11_4 Zn7_5 2.758659 1_555
Rh11_4 Zn7_4 2.758659 1_555
Rh11_5 Zn16_4 2.593584 1_556
Rh11_5 Zn16_5 2.593584 1_555
Rh11_5 Zn0_4 2.607931 1_556
Rh11_5 Zn0_5 2.607931 1_555
Rh11_5 Zn7_5 2.758659 1_555
Rh11_5 Zn7_4 2.758659 1_556
Rh11_6 Zn16_7 2.593584 1_555
Rh11_6 Zn16_6 2.593584 1_555
Rh11_6 Zn0_6 2.607931 1_555
Rh11_6 Zn0_7 2.607931 1_555
Rh11_6 Zn7_7 2.758659 1_555
Rh11_6 Zn7_6 2.758659 1_555
Rh11_7 Zn16_6 2.593584 1_556
Rh11_7 Zn16_7 2.593584 1_555
Rh11_7 Zn0_6 2.607931 1_556
Rh11_7 Zn0_7 2.607931 1_555
Rh11_7 Zn7_6 2.758659 1_556
Rh11_7 Zn7_7 2.758659 1_555
Rh12_0 Zn16_1 2.593584 1_555
Rh12_0 Zn16_0 2.593584 1_555
Rh12_0 Zn0_0 2.607931 1_555
Rh12_0 Zn0_1 2.607931 1_555
Rh12_0 Zn8_1 2.758659 1_555
Rh12_0 Zn8_0 2.758659 1_555
Rh12_1 Zn16_0 2.593584 1_556
Rh12_1 Zn16_1 2.593584 1_555
Rh12_1 Zn0_0 2.607931 1_556
Rh12_1 Zn0_1 2.607931 1_555
Rh12_1 Zn8_1 2.758659 1_555
Rh12_1 Zn8_0 2.758659 1_556
Rh12_2 Zn16_3 2.593584 1_555
Rh12_2 Zn16_2 2.593584 1_555
Rh12_2 Zn0_3 2.607931 1_555
Rh12_2 Zn0_2 2.607931 1_555
Rh12_2 Zn8_2 2.758659 1_555
Rh12_2 Zn8_3 2.758659 1_555
Rh12_3 Zn16_2 2.593584 1_556
Rh12_3 Zn16_3 2.593584 1_555
Rh12_3 Zn0_2 2.607931 1_556
Rh12_3 Zn0_3 2.607931 1_555
Rh12_3 Zn8_2 2.758659 1_556
Rh12_3 Zn8_3 2.758659 1_555
Rh12_4 Zn16_5 2.593584 1_555
Rh12_4 Zn16_4 2.593584 1_555
Rh12_4 Zn0_4 2.607931 1_555
Rh12_4 Zn0_5 2.607931 1_555
Rh12_4 Zn8_5 2.758659 1_555
Rh12_4 Zn8_4 2.758659 1_555
Rh12_5 Zn16_4 2.593584 1_556
Rh12_5 Zn16_5 2.593584 1_555
Rh12_5 Zn0_5 2.607931 1_555
Rh12_5 Zn0_4 2.607931 1_556
Rh12_5 Zn8_4 2.758659 1_556
Rh12_5 Zn8_5 2.758659 1_555
Rh12_6 Zn16_7 2.593584 1_555
Rh12_6 Zn16_6 2.593584 1_555
Rh12_6 Zn0_7 2.607931 1_555
Rh12_6 Zn0_6 2.607931 1_555
Rh12_6 Zn8_7 2.758659 1_555
Rh12_6 Zn8_6 2.758659 1_555
Rh12_7 Zn16_6 2.593584 1_556
Rh12_7 Zn16_7 2.593584 1_555
Rh12_7 Zn0_6 2.607931 1_556
Rh12_7 Zn0_7 2.607931 1_555
Rh12_7 Zn8_7 2.758659 1_555
Rh12_7 Zn8_6 2.758659 1_556
Rh13_0 Zn17_0 2.593584 1_555
Rh13_0 Zn17_1 2.593584 1_555
Rh13_0 Zn1_0 2.607931 1_555
Rh13_0 Zn1_1 2.607931 1_555
Rh13_0 Zn9_1 2.758659 1_555
Rh13_0 Zn9_0 2.758659 1_555
Rh13_1 Zn17_1 2.593584 1_555
Rh13_1 Zn17_0 2.593584 1_556
Rh13_1 Zn1_1 2.607931 1_555
Rh13_1 Zn1_0 2.607931 1_556
Rh13_1 Zn9_0 2.758659 1_556
Rh13_1 Zn9_1 2.758659 1_555
Rh13_2 Zn17_3 2.593584 1_555
Rh13_2 Zn17_2 2.593584 1_555
Rh13_2 Zn1_2 2.607931 1_555
Rh13_2 Zn1_3 2.607931 1_555
Rh13_2 Zn9_2 2.758659 1_555
Rh13_2 Zn9_3 2.758659 1_555
Rh13_3 Zn17_3 2.593584 1_555
Rh13_3 Zn17_2 2.593584 1_556
Rh13_3 Zn1_3 2.607931 1_555
Rh13_3 Zn1_2 2.607931 1_556
Rh13_3 Zn9_3 2.758659 1_555
Rh13_3 Zn9_2 2.758659 1_556
Rh13_4 Zn17_5 2.593584 1_555
Rh13_4 Zn17_4 2.593584 1_555
Rh13_4 Zn1_4 2.607931 1_555
Rh13_4 Zn1_5 2.607931 1_555
Rh13_4 Zn9_4 2.758659 1_555
Rh13_4 Zn9_5 2.758659 1_555
Rh13_5 Zn17_4 2.593584 1_556
Rh13_5 Zn17_5 2.593584 1_555
Rh13_5 Zn1_5 2.607931 1_555
Rh13_5 Zn1_4 2.607931 1_556
Rh13_5 Zn9_5 2.758659 1_555
Rh13_5 Zn9_4 2.758659 1_556
Rh13_6 Zn17_6 2.593584 1_555
Rh13_6 Zn17_7 2.593584 1_555
Rh13_6 Zn1_6 2.607931 1_555
Rh13_6 Zn1_7 2.607931 1_555
Rh13_6 Zn9_6 2.758659 1_555
Rh13_6 Zn9_7 2.758659 1_555
Rh13_7 Zn17_6 2.593584 1_556
Rh13_7 Zn17_7 2.593584 1_555
Rh13_7 Zn1_7 2.607931 1_555
Rh13_7 Zn1_6 2.607931 1_556
Rh13_7 Zn9_6 2.758659 1_556
Rh13_7 Zn9_7 2.758659 1_555
Rh14_0 Zn19_0 2.593584 1_555
Rh14_0 Zn19_1 2.593584 1_555
Rh14_0 Zn3_0 2.607931 1_555
Rh14_0 Zn3_1 2.607931 1_555
Rh14_0 Zn10_1 2.758659 1_555
Rh14_0 Zn10_0 2.758659 1_555
Rh14_1 Zn19_0 2.593584 1_556
Rh14_1 Zn19_1 2.593584 1_555
Rh14_1 Zn3_1 2.607931 1_555
Rh14_1 Zn3_0 2.607931 1_556
Rh14_1 Zn10_1 2.758659 1_555
Rh14_1 Zn10_0 2.758659 1_556
Rh14_2 Zn19_2 2.593584 1_555
Rh14_2 Zn19_3 2.593584 1_555
Rh14_2 Zn3_2 2.607931 1_555
Rh14_2 Zn3_3 2.607931 1_555
Rh14_2 Zn10_2 2.758659 1_555
Rh14_2 Zn10_3 2.758659 1_555
Rh14_3 Zn19_3 2.593584 1_555
Rh14_3 Zn19_2 2.593584 1_556
Rh14_3 Zn3_2 2.607931 1_556
Rh14_3 Zn3_3 2.607931 1_555
Rh14_3 Zn10_3 2.758659 1_555
Rh14_3 Zn10_2 2.758659 1_556
Rh14_4 Zn19_4 2.593584 1_555
Rh14_4 Zn19_5 2.593584 1_555
Rh14_4 Zn3_4 2.607931 1_555
Rh14_4 Zn3_5 2.607931 1_555
Rh14_4 Zn10_5 2.758659 1_555
Rh14_4 Zn10_4 2.758659 1_555
Rh14_5 Zn19_4 2.593584 1_556
Rh14_5 Zn19_5 2.593584 1_555
Rh14_5 Zn3_5 2.607931 1_555
Rh14_5 Zn3_4 2.607931 1_556
Rh14_5 Zn10_4 2.758659 1_556
Rh14_5 Zn10_5 2.758659 1_555
Rh14_6 Zn19_7 2.593584 1_555
Rh14_6 Zn19_6 2.593584 1_555
Rh14_6 Zn3_6 2.607931 1_555
Rh14_6 Zn3_7 2.607931 1_555
Rh14_6 Zn10_6 2.758659 1_555
Rh14_6 Zn10_7 2.758659 1_555
Rh14_7 Zn19_7 2.593584 1_555
Rh14_7 Zn19_6 2.593584 1_556
Rh14_7 Zn3_7 2.607931 1_555
Rh14_7 Zn3_6 2.607931 1_556
Rh14_7 Zn10_6 2.758659 1_556
Rh14_7 Zn10_7 2.758659 1_555
Rh15_0 Zn18_0 2.593584 1_555
Rh15_0 Zn18_1 2.593584 1_555
Rh15_0 Zn2_0 2.607931 1_555
Rh15_0 Zn2_1 2.607931 1_555
Rh15_0 Zn11_1 2.758659 1_555
Rh15_0 Zn11_0 2.758659 1_555
Rh15_1 Zn18_0 2.593584 1_556
Rh15_1 Zn18_1 2.593584 1_555
Rh15_1 Zn2_0 2.607931 1_556
Rh15_1 Zn2_1 2.607931 1_555
Rh15_1 Zn11_1 2.758659 1_555
Rh15_1 Zn11_0 2.758659 1_556
Rh15_2 Zn18_3 2.593584 1_555
Rh15_2 Zn18_2 2.593584 1_555
Rh15_2 Zn2_3 2.607931 1_555
Rh15_2 Zn2_2 2.607931 1_555
Rh15_2 Zn11_3 2.758659 1_555
Rh15_2 Zn11_2 2.758659 1_555
Rh15_3 Zn18_2 2.593584 1_556
Rh15_3 Zn18_3 2.593584 1_555
Rh15_3 Zn2_3 2.607931 1_555
Rh15_3 Zn2_2 2.607931 1_556
Rh15_3 Zn11_2 2.758659 1_556
Rh15_3 Zn11_3 2.758659 1_555
Rh15_4 Zn18_4 2.593584 1_555
Rh15_4 Zn18_5 2.593584 1_555
Rh15_4 Zn2_5 2.607931 1_555
Rh15_4 Zn2_4 2.607931 1_555
Rh15_4 Zn11_5 2.758659 1_555
Rh15_4 Zn11_4 2.758659 1_555
Rh15_5 Zn18_5 2.593584 1_555
Rh15_5 Zn18_4 2.593584 1_556
Rh15_5 Zn2_5 2.607931 1_555
Rh15_5 Zn2_4 2.607931 1_556
Rh15_5 Zn11_5 2.758659 1_555
Rh15_5 Zn11_4 2.758659 1_556
Rh15_6 Zn18_6 2.593584 1_555
Rh15_6 Zn18_7 2.593584 1_555
Rh15_6 Zn2_7 2.607931 1_555
Rh15_6 Zn2_6 2.607931 1_555
Rh15_6 Zn11_7 2.758659 1_555
Rh15_6 Zn11_6 2.758659 1_555
Rh15_7 Zn18_6 2.593584 1_556
Rh15_7 Zn18_7 2.593584 1_555
Rh15_7 Zn2_6 2.607931 1_556
Rh15_7 Zn2_7 2.607931 1_555
Rh15_7 Zn11_7 2.758659 1_555
Rh15_7 Zn11_6 2.758659 1_556
Rh16_0 Zn18_0 2.595790 1_555
Rh16_0 Zn18_1 2.595790 1_555
Rh16_0 Zn4_1 2.659848 1_555
Rh16_0 Zn4_0 2.659848 1_555
Rh16_0 Zn15_1 2.707899 1_555
Rh16_0 Zn15_0 2.707899 1_555
Rh16_1 Zn18_0 2.595790 1_556
Rh16_1 Zn18_1 2.595790 1_555
Rh16_1 Zn4_1 2.659848 1_555
Rh16_1 Zn4_0 2.659848 1_556
Rh16_1 Zn15_1 2.707899 1_555
Rh16_1 Zn15_0 2.707899 1_556
Rh16_2 Zn18_2 2.595790 1_555
Rh16_2 Zn18_3 2.595790 1_555
Rh16_2 Zn4_2 2.659848 1_555
Rh16_2 Zn4_3 2.659848 1_555
Rh16_2 Zn15_2 2.707899 1_555
Rh16_2 Zn15_3 2.707899 1_555
Rh16_3 Zn18_2 2.595790 1_556
Rh16_3 Zn18_3 2.595790 1_555
Rh16_3 Zn4_3 2.659848 1_555
Rh16_3 Zn4_2 2.659848 1_556
Rh16_3 Zn15_3 2.707899 1_555
Rh16_3 Zn15_2 2.707899 1_556
Rh16_4 Zn18_4 2.595790 1_555
Rh16_4 Zn18_5 2.595790 1_555
Rh16_4 Zn4_5 2.659848 1_555
Rh16_4 Zn4_4 2.659848 1_555
Rh16_4 Zn15_4 2.707899 1_555
Rh16_4 Zn15_5 2.707899 1_555
Rh16_5 Zn18_4 2.595790 1_556
Rh16_5 Zn18_5 2.595790 1_555
Rh16_5 Zn4_4 2.659848 1_556
Rh16_5 Zn4_5 2.659848 1_555
Rh16_5 Zn15_4 2.707899 1_556
Rh16_5 Zn15_5 2.707899 1_555
Rh16_6 Zn18_6 2.595790 1_555
Rh16_6 Zn18_7 2.595790 1_555
Rh16_6 Zn4_6 2.659848 1_555
Rh16_6 Zn4_7 2.659848 1_555
Rh16_6 Zn15_7 2.707899 1_555
Rh16_6 Zn15_6 2.707899 1_555
Rh16_7 Zn18_6 2.595790 1_556
Rh16_7 Zn18_7 2.595790 1_555
Rh16_7 Zn4_6 2.659848 1_556
Rh16_7 Zn4_7 2.659848 1_555
Rh16_7 Zn15_6 2.707899 1_556
Rh16_7 Zn15_7 2.707899 1_555
Rh17_0 Zn19_0 2.595790 1_555
Rh17_0 Zn19_1 2.595790 1_555
Rh17_0 Zn5_0 2.659848 1_555
Rh17_0 Zn5_1 2.659848 1_555
Rh17_0 Zn14_0 2.707899 1_555
Rh17_0 Zn14_1 2.707899 1_555
Rh17_1 Zn19_0 2.595790 1_556
Rh17_1 Zn19_1 2.595790 1_555
Rh17_1 Zn5_0 2.659848 1_556
Rh17_1 Zn5_1 2.659848 1_555
Rh17_1 Zn14_0 2.707899 1_556
Rh17_1 Zn14_1 2.707899 1_555
Rh17_2 Zn19_3 2.595790 1_555
Rh17_2 Zn19_2 2.595790 1_555
Rh17_2 Zn5_3 2.659848 1_555
Rh17_2 Zn5_2 2.659848 1_555
Rh17_2 Zn14_3 2.707899 1_555
Rh17_2 Zn14_2 2.707899 1_555
Rh17_3 Zn19_2 2.595790 1_556
Rh17_3 Zn19_3 2.595790 1_555
Rh17_3 Zn5_3 2.659848 1_555
Rh17_3 Zn5_2 2.659848 1_556
Rh17_3 Zn14_3 2.707899 1_555
Rh17_3 Zn14_2 2.707899 1_556
Rh17_4 Zn19_5 2.595790 1_555
Rh17_4 Zn19_4 2.595790 1_555
Rh17_4 Zn5_4 2.659848 1_555
Rh17_4 Zn5_5 2.659848 1_555
Rh17_4 Zn14_4 2.707899 1_555
Rh17_4 Zn14_5 2.707899 1_555
Rh17_5 Zn19_4 2.595790 1_556
Rh17_5 Zn19_5 2.595790 1_555
Rh17_5 Zn5_5 2.659848 1_555
Rh17_5 Zn5_4 2.659848 1_556
Rh17_5 Zn14_4 2.707899 1_556
Rh17_5 Zn14_5 2.707899 1_555
Rh17_6 Zn19_6 2.595790 1_555
Rh17_6 Zn19_7 2.595790 1_555
Rh17_6 Zn5_6 2.659848 1_555
Rh17_6 Zn5_7 2.659848 1_555
Rh17_6 Zn14_6 2.707899 1_555
Rh17_6 Zn14_7 2.707899 1_555
Rh17_7 Zn19_7 2.595790 1_555
Rh17_7 Zn19_6 2.595790 1_556
Rh17_7 Zn5_6 2.659848 1_556
Rh17_7 Zn5_7 2.659848 1_555
Rh17_7 Zn14_6 2.707899 1_556
Rh17_7 Zn14_7 2.707899 1_555
Rh18_0 Zn17_1 2.595790 1_555
Rh18_0 Zn17_0 2.595790 1_555
Rh18_0 Zn6_1 2.659848 1_555
Rh18_0 Zn6_0 2.659848 1_555
Rh18_0 Zn12_1 2.707899 1_555
Rh18_0 Zn12_0 2.707899 1_555
Rh18_1 Zn17_1 2.595790 1_555
Rh18_1 Zn17_0 2.595790 1_556
Rh18_1 Zn6_0 2.659848 1_556
Rh18_1 Zn6_1 2.659848 1_555
Rh18_1 Zn12_1 2.707899 1_555
Rh18_1 Zn12_0 2.707899 1_556
Rh18_2 Zn17_2 2.595790 1_555
Rh18_2 Zn17_3 2.595790 1_555
Rh18_2 Zn6_2 2.659848 1_555
Rh18_2 Zn6_3 2.659848 1_555
Rh18_2 Zn12_2 2.707899 1_555
Rh18_2 Zn12_3 2.707899 1_555
Rh18_3 Zn17_2 2.595790 1_556
Rh18_3 Zn17_3 2.595790 1_555
Rh18_3 Zn6_3 2.659848 1_555
Rh18_3 Zn6_2 2.659848 1_556
Rh18_3 Zn12_3 2.707899 1_555
Rh18_3 Zn12_2 2.707899 1_556
Rh18_4 Zn17_4 2.595790 1_555
Rh18_4 Zn17_5 2.595790 1_555
Rh18_4 Zn6_4 2.659848 1_555
Rh18_4 Zn6_5 2.659848 1_555
Rh18_4 Zn12_4 2.707899 1_555
Rh18_4 Zn12_5 2.707899 1_555
Rh18_5 Zn17_4 2.595790 1_556
Rh18_5 Zn17_5 2.595790 1_555
Rh18_5 Zn6_5 2.659848 1_555
Rh18_5 Zn6_4 2.659848 1_556
Rh18_5 Zn12_4 2.707899 1_556
Rh18_5 Zn12_5 2.707899 1_555
Rh18_6 Zn17_6 2.595790 1_555
Rh18_6 Zn17_7 2.595790 1_555
Rh18_6 Zn6_6 2.659848 1_555
Rh18_6 Zn6_7 2.659848 1_555
Rh18_6 Zn12_7 2.707899 1_555
Rh18_6 Zn12_6 2.707899 1_555
Rh18_7 Zn17_6 2.595790 1_556
Rh18_7 Zn17_7 2.595790 1_555
Rh18_7 Zn6_6 2.659848 1_556
Rh18_7 Zn6_7 2.659848 1_555
Rh18_7 Zn12_7 2.707899 1_555
Rh18_7 Zn12_6 2.707899 1_556
Rh19_0 Zn16_1 2.595790 1_555
Rh19_0 Zn16_0 2.595790 1_555
Rh19_0 Zn7_1 2.659848 1_555
Rh19_0 Zn7_0 2.659848 1_555
Rh19_0 Zn13_1 2.707899 1_555
Rh19_0 Zn13_0 2.707899 1_555
Rh19_1 Zn16_0 2.595790 1_556
Rh19_1 Zn16_1 2.595790 1_555
Rh19_1 Zn7_1 2.659848 1_555
Rh19_1 Zn7_0 2.659848 1_556
Rh19_1 Zn13_1 2.707899 1_555
Rh19_1 Zn13_0 2.707899 1_556
Rh19_2 Zn16_3 2.595790 1_555
Rh19_2 Zn16_2 2.595790 1_555
Rh19_2 Zn7_3 2.659848 1_555
Rh19_2 Zn7_2 2.659848 1_555
Rh19_2 Zn13_2 2.707899 1_555
Rh19_2 Zn13_3 2.707899 1_555
Rh19_3 Zn16_3 2.595790 1_555
Rh19_3 Zn16_2 2.595790 1_556
Rh19_3 Zn7_3 2.659848 1_555
Rh19_3 Zn7_2 2.659848 1_556
Rh19_3 Zn13_2 2.707899 1_556
Rh19_3 Zn13_3 2.707899 1_555
Rh19_4 Zn16_4 2.595790 1_555
Rh19_4 Zn16_5 2.595790 1_555
Rh19_4 Zn7_4 2.659848 1_555
Rh19_4 Zn7_5 2.659848 1_555
Rh19_4 Zn13_5 2.707899 1_555
Rh19_4 Zn13_4 2.707899 1_555
Rh19_5 Zn16_5 2.595790 1_555
Rh19_5 Zn16_4 2.595790 1_556
Rh19_5 Zn7_4 2.659848 1_556
Rh19_5 Zn7_5 2.659848 1_555
Rh19_5 Zn13_4 2.707899 1_556
Rh19_5 Zn13_5 2.707899 1_555
Rh19_6 Zn16_6 2.595790 1_555
Rh19_6 Zn16_7 2.595790 1_555
Rh19_6 Zn7_6 2.659848 1_555
Rh19_6 Zn7_7 2.659848 1_555
Rh19_6 Zn13_7 2.707899 1_555
Rh19_6 Zn13_6 2.707899 1_555
Rh19_7 Zn16_6 2.595790 1_556
Rh19_7 Zn16_7 2.595790 1_555
Rh19_7 Zn7_7 2.659848 1_555
Rh19_7 Zn7_6 2.659848 1_556
Rh19_7 Zn13_7 2.707899 1_555
Rh19_7 Zn13_6 2.707899 1_556
Rh20_0 Zn16_0 2.595790 1_555
Rh20_0 Zn16_1 2.595790 1_555
Rh20_0 Zn8_1 2.659848 1_555
Rh20_0 Zn8_0 2.659848 1_555
Rh20_0 Zn13_0 2.707899 1_555
Rh20_0 Zn13_1 2.707899 1_555
Rh20_1 Zn16_0 2.595790 1_556
Rh20_1 Zn16_1 2.595790 1_555
Rh20_1 Zn8_0 2.659848 1_556
Rh20_1 Zn8_1 2.659848 1_555
Rh20_1 Zn13_0 2.707899 1_556
Rh20_1 Zn13_1 2.707899 1_555
Rh20_2 Zn16_3 2.595790 1_555
Rh20_2 Zn16_2 2.595790 1_555
Rh20_2 Zn8_2 2.659848 1_555
Rh20_2 Zn8_3 2.659848 1_555
Rh20_2 Zn13_2 2.707899 1_555
Rh20_2 Zn13_3 2.707899 1_555
Rh20_3 Zn16_3 2.595790 1_555
Rh20_3 Zn16_2 2.595790 1_556
Rh20_3 Zn8_2 2.659848 1_556
Rh20_3 Zn8_3 2.659848 1_555
Rh20_3 Zn13_2 2.707899 1_556
Rh20_3 Zn13_3 2.707899 1_555
Rh20_4 Zn16_5 2.595790 1_555
Rh20_4 Zn16_4 2.595790 1_555
Rh20_4 Zn8_5 2.659848 1_555
Rh20_4 Zn8_4 2.659848 1_555
Rh20_4 Zn13_5 2.707899 1_555
Rh20_4 Zn13_4 2.707899 1_555
Rh20_5 Zn16_4 2.595790 1_556
Rh20_5 Zn16_5 2.595790 1_555
Rh20_5 Zn8_4 2.659848 1_556
Rh20_5 Zn8_5 2.659848 1_555
Rh20_5 Zn13_4 2.707899 1_556
Rh20_5 Zn13_5 2.707899 1_555
Rh20_6 Zn16_6 2.595790 1_555
Rh20_6 Zn16_7 2.595790 1_555
Rh20_6 Zn8_7 2.659848 1_555
Rh20_6 Zn8_6 2.659848 1_555
Rh20_6 Zn13_6 2.707899 1_555
Rh20_6 Zn13_7 2.707899 1_555
Rh20_7 Zn16_6 2.595790 1_556
Rh20_7 Zn16_7 2.595790 1_555
Rh20_7 Zn8_7 2.659848 1_555
Rh20_7 Zn8_6 2.659848 1_556
Rh20_7 Zn13_6 2.707899 1_556
Rh20_7 Zn13_7 2.707899 1_555
Rh21_0 Zn17_0 2.595790 1_555
Rh21_0 Zn17_1 2.595790 1_555
Rh21_0 Zn9_1 2.659848 1_555
Rh21_0 Zn9_0 2.659848 1_555
Rh21_0 Zn12_0 2.707899 1_555
Rh21_0 Zn12_1 2.707899 1_555
Rh21_1 Zn17_0 2.595790 1_556
Rh21_1 Zn17_1 2.595790 1_555
Rh21_1 Zn9_0 2.659848 1_556
Rh21_1 Zn9_1 2.659848 1_555
Rh21_1 Zn12_1 2.707899 1_555
Rh21_1 Zn12_0 2.707899 1_556
Rh21_2 Zn17_3 2.595790 1_555
Rh21_2 Zn17_2 2.595790 1_555
Rh21_2 Zn9_3 2.659848 1_555
Rh21_2 Zn9_2 2.659848 1_555
Rh21_2 Zn12_2 2.707899 1_555
Rh21_2 Zn12_3 2.707899 1_555
Rh21_3 Zn17_2 2.595790 1_556
Rh21_3 Zn17_3 2.595790 1_555
Rh21_3 Zn9_2 2.659848 1_556
Rh21_3 Zn9_3 2.659848 1_555
Rh21_3 Zn12_3 2.707899 1_555
Rh21_3 Zn12_2 2.707899 1_556
Rh21_4 Zn17_4 2.595790 1_555
Rh21_4 Zn17_5 2.595790 1_555
Rh21_4 Zn9_4 2.659848 1_555
Rh21_4 Zn9_5 2.659848 1_555
Rh21_4 Zn12_4 2.707899 1_555
Rh21_4 Zn12_5 2.707899 1_555
Rh21_5 Zn17_4 2.595790 1_556
Rh21_5 Zn17_5 2.595790 1_555
Rh21_5 Zn9_4 2.659848 1_556
Rh21_5 Zn9_5 2.659848 1_555
Rh21_5 Zn12_4 2.707899 1_556
Rh21_5 Zn12_5 2.707899 1_555
Rh21_6 Zn17_7 2.595790 1_555
Rh21_6 Zn17_6 2.595790 1_555
Rh21_6 Zn9_7 2.659848 1_555
Rh21_6 Zn9_6 2.659848 1_555
Rh21_6 Zn12_7 2.707899 1_555
Rh21_6 Zn12_6 2.707899 1_555
Rh21_7 Zn17_6 2.595790 1_556
Rh21_7 Zn17_7 2.595790 1_555
Rh21_7 Zn9_7 2.659848 1_555
Rh21_7 Zn9_6 2.659848 1_556
Rh21_7 Zn12_7 2.707899 1_555
Rh21_7 Zn12_6 2.707899 1_556
Rh22_0 Zn19_0 2.595790 1_555
Rh22_0 Zn19_1 2.595790 1_555
Rh22_0 Zn10_0 2.659848 1_555
Rh22_0 Zn10_1 2.659848 1_555
Rh22_0 Zn14_0 2.707899 1_555
Rh22_0 Zn14_1 2.707899 1_555
Rh22_1 Zn19_0 2.595790 1_556
Rh22_1 Zn19_1 2.595790 1_555
Rh22_1 Zn10_0 2.659848 1_556
Rh22_1 Zn10_1 2.659848 1_555
Rh22_1 Zn14_0 2.707899 1_556
Rh22_1 Zn14_1 2.707899 1_555
Rh22_2 Zn19_2 2.595790 1_555
Rh22_2 Zn19_3 2.595790 1_555
Rh22_2 Zn10_3 2.659848 1_555
Rh22_2 Zn10_2 2.659848 1_555
Rh22_2 Zn14_3 2.707899 1_555
Rh22_2 Zn14_2 2.707899 1_555
Rh22_3 Zn19_2 2.595790 1_556
Rh22_3 Zn19_3 2.595790 1_555
Rh22_3 Zn10_2 2.659848 1_556
Rh22_3 Zn10_3 2.659848 1_555
Rh22_3 Zn14_2 2.707899 1_556
Rh22_3 Zn14_3 2.707899 1_555
Rh22_4 Zn19_5 2.595790 1_555
Rh22_4 Zn19_4 2.595790 1_555
Rh22_4 Zn10_5 2.659848 1_555
Rh22_4 Zn10_4 2.659848 1_555
Rh22_4 Zn14_5 2.707899 1_555
Rh22_4 Zn14_4 2.707899 1_555
Rh22_5 Zn19_5 2.595790 1_555
Rh22_5 Zn19_4 2.595790 1_556
Rh22_5 Zn10_4 2.659848 1_556
Rh22_5 Zn10_5 2.659848 1_555
Rh22_5 Zn14_4 2.707899 1_556
Rh22_5 Zn14_5 2.707899 1_555
Rh22_6 Zn19_7 2.595790 1_555
Rh22_6 Zn19_6 2.595790 1_555
Rh22_6 Zn10_7 2.659848 1_555
Rh22_6 Zn10_6 2.659848 1_555
Rh22_6 Zn14_6 2.707899 1_555
Rh22_6 Zn14_7 2.707899 1_555
Rh22_7 Zn19_7 2.595790 1_555
Rh22_7 Zn19_6 2.595790 1_556
Rh22_7 Zn10_7 2.659848 1_555
Rh22_7 Zn10_6 2.659848 1_556
Rh22_7 Zn14_6 2.707899 1_556
Rh22_7 Zn14_7 2.707899 1_555
Rh23_0 Zn18_1 2.595790 1_555
Rh23_0 Zn18_0 2.595790 1_555
Rh23_0 Zn11_0 2.659848 1_555
Rh23_0 Zn11_1 2.659848 1_555
Rh23_0 Zn15_0 2.707899 1_555
Rh23_0 Zn15_1 2.707899 1_555
Rh23_1 Zn18_1 2.595790 1_555
Rh23_1 Zn18_0 2.595790 1_556
Rh23_1 Zn11_0 2.659848 1_556
Rh23_1 Zn11_1 2.659848 1_555
Rh23_1 Zn15_1 2.707899 1_555
Rh23_1 Zn15_0 2.707899 1_556
Rh23_2 Zn18_3 2.595790 1_555
Rh23_2 Zn18_2 2.595790 1_555
Rh23_2 Zn11_3 2.659848 1_555
Rh23_2 Zn11_2 2.659848 1_555
Rh23_2 Zn15_2 2.707899 1_555
Rh23_2 Zn15_3 2.707899 1_555
Rh23_3 Zn18_3 2.595790 1_555
Rh23_3 Zn18_2 2.595790 1_556
Rh23_3 Zn11_3 2.659848 1_555
Rh23_3 Zn11_2 2.659848 1_556
Rh23_3 Zn15_2 2.707899 1_556
Rh23_3 Zn15_3 2.707899 1_555
Rh23_4 Zn18_5 2.595790 1_555
Rh23_4 Zn18_4 2.595790 1_555
Rh23_4 Zn11_4 2.659848 1_555
Rh23_4 Zn11_5 2.659848 1_555
Rh23_4 Zn15_4 2.707899 1_555
Rh23_4 Zn15_5 2.707899 1_555
Rh23_5 Zn18_5 2.595790 1_555
Rh23_5 Zn18_4 2.595790 1_556
Rh23_5 Zn11_4 2.659848 1_556
Rh23_5 Zn11_5 2.659848 1_555
Rh23_5 Zn15_4 2.707899 1_556
Rh23_5 Zn15_5 2.707899 1_555
Rh23_6 Zn18_7 2.595790 1_555
Rh23_6 Zn18_6 2.595790 1_555
Rh23_6 Zn11_6 2.659848 1_555
Rh23_6 Zn11_7 2.659848 1_555
Rh23_6 Zn15_7 2.707899 1_555
Rh23_6 Zn15_6 2.707899 1_555
Rh23_7 Zn18_7 2.595790 1_555
Rh23_7 Zn18_6 2.595790 1_556
Rh23_7 Zn11_6 2.659848 1_556
Rh23_7 Zn11_7 2.659848 1_555
Rh23_7 Zn15_6 2.707899 1_556
Rh23_7 Zn15_7 2.707899 1_555
Rh24_0 Zn6_3 2.704464 1_545
Rh24_0 Zn6_2 2.704464 1_545
Rh24_0 Zn4_0 3.077933 1_555
Rh24_0 Zn4_1 3.077933 1_555
Rh24_1 Zn6_2 2.704464 1_546
Rh24_1 Zn6_3 2.704464 1_545
Rh24_1 Zn4_0 3.077933 1_556
Rh24_1 Zn4_1 3.077933 1_555
Rh24_2 Zn6_1 2.704464 1_555
Rh24_2 Zn6_0 2.704464 1_555
Rh24_2 Zn4_2 3.077933 1_555
Rh24_2 Zn4_3 3.077933 1_555
Rh24_3 Zn6_0 2.704464 1_556
Rh24_3 Zn6_1 2.704464 1_555
Rh24_3 Zn4_3 3.077933 1_555
Rh24_3 Zn4_2 3.077933 1_556
Rh24_4 Zn6_7 2.704464 1_545
Rh24_4 Zn6_6 2.704464 1_545
Rh24_4 Zn4_4 3.077933 1_555
Rh24_4 Zn4_5 3.077933 1_555
Rh24_5 Zn6_7 2.704464 1_545
Rh24_5 Zn6_6 2.704464 1_546
Rh24_5 Zn4_4 3.077933 1_556
Rh24_5 Zn4_5 3.077933 1_555
Rh24_6 Zn6_4 2.704464 1_555
Rh24_6 Zn6_5 2.704464 1_555
Rh24_6 Zn4_6 3.077933 1_555
Rh24_6 Zn4_7 3.077933 1_555
Rh24_7 Zn6_4 2.704464 1_556
Rh24_7 Zn6_5 2.704464 1_555
Rh24_7 Zn4_6 3.077933 1_556
Rh24_7 Zn4_7 3.077933 1_555
Rh25_0 Zn8_3 2.704464 1_555
Rh25_0 Zn8_2 2.704464 1_555
Rh25_0 Zn5_1 3.077933 1_555
Rh25_0 Zn5_0 3.077933 1_555
Rh25_1 Zn8_2 2.704464 1_556
Rh25_1 Zn8_3 2.704464 1_555
Rh25_1 Zn5_0 3.077933 1_556
Rh25_1 Zn5_1 3.077933 1_555
Rh25_2 Zn8_1 2.704464 1_565
Rh25_2 Zn8_0 2.704464 1_565
Rh25_2 Zn5_2 3.077933 1_555
Rh25_2 Zn5_3 3.077933 1_555
Rh25_3 Zn8_0 2.704464 1_566
Rh25_3 Zn8_1 2.704464 1_565
Rh25_3 Zn5_2 3.077933 1_556
Rh25_3 Zn5_3 3.077933 1_555
Rh25_4 Zn8_6 2.704464 1_555
Rh25_4 Zn8_7 2.704464 1_555
Rh25_4 Zn5_4 3.077933 1_555
Rh25_4 Zn5_5 3.077933 1_555
Rh25_5 Zn8_7 2.704464 1_555
Rh25_5 Zn8_6 2.704464 1_556
Rh25_5 Zn5_5 3.077933 1_555
Rh25_5 Zn5_4 3.077933 1_556
Rh25_6 Zn8_4 2.704464 1_565
Rh25_6 Zn8_5 2.704464 1_565
Rh25_6 Zn5_7 3.077933 1_555
Rh25_6 Zn5_6 3.077933 1_555
Rh25_7 Zn8_4 2.704464 1_566
Rh25_7 Zn8_5 2.704464 1_565
Rh25_7 Zn5_7 3.077933 1_555
Rh25_7 Zn5_6 3.077933 1_556
Rh26_0 Zn5_4 2.704464 1_455
Rh26_0 Zn5_5 2.704464 1_455
Rh26_0 Zn6_0 3.077933 1_555
Rh26_0 Zn6_1 3.077933 1_555
Rh26_1 Zn5_4 2.704464 1_456
Rh26_1 Zn5_5 2.704464 1_455
Rh26_1 Zn6_1 3.077933 1_555
Rh26_1 Zn6_0 3.077933 1_556
Rh26_2 Zn5_6 2.704464 1_455
Rh26_2 Zn5_7 2.704464 1_455
Rh26_2 Zn6_3 3.077933 1_555
Rh26_2 Zn6_2 3.077933 1_555
Rh26_3 Zn5_6 2.704464 1_456
Rh26_3 Zn5_7 2.704464 1_455
Rh26_3 Zn6_3 3.077933 1_555
Rh26_3 Zn6_2 3.077933 1_556
Rh26_4 Zn5_1 2.704464 1_555
Rh26_4 Zn5_0 2.704464 1_555
Rh26_4 Zn6_4 3.077933 1_555
Rh26_4 Zn6_5 3.077933 1_555
Rh26_5 Zn5_0 2.704464 1_556
Rh26_5 Zn5_1 2.704464 1_555
Rh26_5 Zn6_4 3.077933 1_556
Rh26_5 Zn6_5 3.077933 1_555
Rh26_6 Zn5_3 2.704464 1_555
Rh26_6 Zn5_2 2.704464 1_555
Rh26_6 Zn6_6 3.077933 1_555
Rh26_6 Zn6_7 3.077933 1_555
Rh26_7 Zn5_3 2.704464 1_555
Rh26_7 Zn5_2 2.704464 1_556
Rh26_7 Zn6_6 3.077933 1_556
Rh26_7 Zn6_7 3.077933 1_555
Rh27_0 Zn10_0 2.704464 1_555
Rh27_0 Zn10_1 2.704464 1_555
Rh27_0 Zn7_1 3.077933 1_555
Rh27_0 Zn7_0 3.077933 1_555
Rh27_1 Zn10_0 2.704464 1_556
Rh27_1 Zn10_1 2.704464 1_555
Rh27_1 Zn7_1 3.077933 1_555
Rh27_1 Zn7_0 3.077933 1_556
Rh27_2 Zn10_3 2.704464 1_555
Rh27_2 Zn10_2 2.704464 1_555
Rh27_2 Zn7_2 3.077933 1_555
Rh27_2 Zn7_3 3.077933 1_555
Rh27_3 Zn10_2 2.704464 1_556
Rh27_3 Zn10_3 2.704464 1_555
Rh27_3 Zn7_3 3.077933 1_555
Rh27_3 Zn7_2 3.077933 1_556
Rh27_4 Zn10_5 2.704464 1_555
Rh27_4 Zn10_4 2.704464 1_555
Rh27_4 Zn7_4 3.077933 1_555
Rh27_4 Zn7_5 3.077933 1_555
Rh27_5 Zn10_4 2.704464 1_556
Rh27_5 Zn10_5 2.704464 1_555
Rh27_5 Zn7_5 3.077933 1_555
Rh27_5 Zn7_4 3.077933 1_556
Rh27_6 Zn10_7 2.704464 1_555
Rh27_6 Zn10_6 2.704464 1_555
Rh27_6 Zn7_7 3.077933 1_555
Rh27_6 Zn7_6 3.077933 1_555
Rh27_7 Zn10_7 2.704464 1_555
Rh27_7 Zn10_6 2.704464 1_556
Rh27_7 Zn7_7 3.077933 1_555
Rh27_7 Zn7_6 3.077933 1_556
Rh28_0 Zn4_4 2.704464 1_555
Rh28_0 Zn4_5 2.704464 1_555
Rh28_0 Zn8_1 3.077933 1_555
Rh28_0 Zn8_0 3.077933 1_555
Rh28_1 Zn4_5 2.704464 1_555
Rh28_1 Zn4_4 2.704464 1_556
Rh28_1 Zn8_0 3.077933 1_556
Rh28_1 Zn8_1 3.077933 1_555
Rh28_2 Zn4_7 2.704464 1_555
Rh28_2 Zn4_6 2.704464 1_555
Rh28_2 Zn8_3 3.077933 1_555
Rh28_2 Zn8_2 3.077933 1_555
Rh28_3 Zn4_6 2.704464 1_556
Rh28_3 Zn4_7 2.704464 1_555
Rh28_3 Zn8_2 3.077933 1_556
Rh28_3 Zn8_3 3.077933 1_555
Rh28_4 Zn4_0 2.704464 1_655
Rh28_4 Zn4_1 2.704464 1_655
Rh28_4 Zn8_5 3.077933 1_555
Rh28_4 Zn8_4 3.077933 1_555
Rh28_5 Zn4_0 2.704464 1_656
Rh28_5 Zn4_1 2.704464 1_655
Rh28_5 Zn8_4 3.077933 1_556
Rh28_5 Zn8_5 3.077933 1_555
Rh28_6 Zn4_3 2.704464 1_655
Rh28_6 Zn4_2 2.704464 1_655
Rh28_6 Zn8_6 3.077933 1_555
Rh28_6 Zn8_7 3.077933 1_555
Rh28_7 Zn4_3 2.704464 1_655
Rh28_7 Zn4_2 2.704464 1_656
Rh28_7 Zn8_7 3.077933 1_555
Rh28_7 Zn8_6 3.077933 1_556
Rh29_0 Zn11_1 2.704464 1_555
Rh29_0 Zn11_0 2.704464 1_555
Rh29_0 Zn9_0 3.077933 1_555
Rh29_0 Zn9_1 3.077933 1_555
Rh29_1 Zn11_0 2.704464 1_556
Rh29_1 Zn11_1 2.704464 1_555
Rh29_1 Zn9_0 3.077933 1_556
Rh29_1 Zn9_1 3.077933 1_555
Rh29_2 Zn11_2 2.704464 1_555
Rh29_2 Zn11_3 2.704464 1_555
Rh29_2 Zn9_2 3.077933 1_555
Rh29_2 Zn9_3 3.077933 1_555
Rh29_3 Zn11_2 2.704464 1_556
Rh29_3 Zn11_3 2.704464 1_555
Rh29_3 Zn9_2 3.077933 1_556
Rh29_3 Zn9_3 3.077933 1_555
Rh29_4 Zn11_5 2.704464 1_555
Rh29_4 Zn11_4 2.704464 1_555
Rh29_4 Zn9_4 3.077933 1_555
Rh29_4 Zn9_5 3.077933 1_555
Rh29_5 Zn11_5 2.704464 1_555
Rh29_5 Zn11_4 2.704464 1_556
Rh29_5 Zn9_5 3.077933 1_555
Rh29_5 Zn9_4 3.077933 1_556
Rh29_6 Zn11_7 2.704464 1_555
Rh29_6 Zn11_6 2.704464 1_555
Rh29_6 Zn9_7 3.077933 1_555
Rh29_6 Zn9_6 3.077933 1_555
Rh29_7 Zn11_6 2.704464 1_556
Rh29_7 Zn11_7 2.704464 1_555
Rh29_7 Zn9_7 3.077933 1_555
Rh29_7 Zn9_6 3.077933 1_556
Rh30_0 Zn9_1 2.704464 1_555
Rh30_0 Zn9_0 2.704464 1_555
Rh30_0 Zn10_0 3.077933 1_555
Rh30_0 Zn10_1 3.077933 1_555
Rh30_1 Zn9_0 2.704464 1_556
Rh30_1 Zn9_1 2.704464 1_555
Rh30_1 Zn10_1 3.077933 1_555
Rh30_1 Zn10_0 3.077933 1_556
Rh30_2 Zn9_2 2.704464 1_555
Rh30_2 Zn9_3 2.704464 1_555
Rh30_2 Zn10_2 3.077933 1_555
Rh30_2 Zn10_3 3.077933 1_555
Rh30_3 Zn9_3 2.704464 1_555
Rh30_3 Zn9_2 2.704464 1_556
Rh30_3 Zn10_3 3.077933 1_555
Rh30_3 Zn10_2 3.077933 1_556
Rh30_4 Zn9_4 2.704464 1_555
Rh30_4 Zn9_5 2.704464 1_555
Rh30_4 Zn10_5 3.077933 1_555
Rh30_4 Zn10_4 3.077933 1_555
Rh30_5 Zn9_5 2.704464 1_555
Rh30_5 Zn9_4 2.704464 1_556
Rh30_5 Zn10_4 3.077933 1_556
Rh30_5 Zn10_5 3.077933 1_555
Rh30_6 Zn9_7 2.704464 1_555
Rh30_6 Zn9_6 2.704464 1_555
Rh30_6 Zn10_6 3.077933 1_555
Rh30_6 Zn10_7 3.077933 1_555
Rh30_7 Zn9_7 2.704464 1_555
Rh30_7 Zn9_6 2.704464 1_556
Rh30_7 Zn10_6 3.077933 1_556
Rh30_7 Zn10_7 3.077933 1_555
Rh31_0 Zn7_0 2.704464 1_555
Rh31_0 Zn7_1 2.704464 1_555
Rh31_0 Zn11_0 3.077933 1_555
Rh31_0 Zn11_1 3.077933 1_555
Rh31_1 Zn7_1 2.704464 1_555
Rh31_1 Zn7_0 2.704464 1_556
Rh31_1 Zn11_0 3.077933 1_556
Rh31_1 Zn11_1 3.077933 1_555
Rh31_2 Zn7_2 2.704464 1_555
Rh31_2 Zn7_3 2.704464 1_555
Rh31_2 Zn11_2 3.077933 1_555
Rh31_2 Zn11_3 3.077933 1_555
Rh31_3 Zn7_3 2.704464 1_555
Rh31_3 Zn7_2 2.704464 1_556
Rh31_3 Zn11_2 3.077933 1_556
Rh31_3 Zn11_3 3.077933 1_555
Rh31_4 Zn7_4 2.704464 1_555
Rh31_4 Zn7_5 2.704464 1_555
Rh31_4 Zn11_5 3.077933 1_555
Rh31_4 Zn11_4 3.077933 1_555
Rh31_5 Zn7_4 2.704464 1_556
Rh31_5 Zn7_5 2.704464 1_555
Rh31_5 Zn11_5 3.077933 1_555
Rh31_5 Zn11_4 3.077933 1_556
Rh31_6 Zn7_6 2.704464 1_555
Rh31_6 Zn7_7 2.704464 1_555
Rh31_6 Zn11_7 3.077933 1_555
Rh31_6 Zn11_6 3.077933 1_555
Rh31_7 Zn7_7 2.704464 1_555
Rh31_7 Zn7_6 2.704464 1_556
Rh31_7 Zn11_6 3.077933 1_556
Rh31_7 Zn11_7 3.077933 1_555
Rh32_0 Zn2_1 2.764917 1_555
Rh32_0 Zn2_0 2.764917 1_555
Rh32_0 Zn3_4 2.764917 1_455
Rh32_0 Zn3_5 2.764917 1_455
Rh32_1 Zn2_1 2.764917 1_555
Rh32_1 Zn2_0 2.764917 1_556
Rh32_1 Zn3_5 2.764917 1_455
Rh32_1 Zn3_4 2.764917 1_456
Rh32_2 Zn3_6 2.764917 1_455
Rh32_2 Zn3_7 2.764917 1_455
Rh32_2 Zn2_2 2.764917 1_555
Rh32_2 Zn2_3 2.764917 1_555
Rh32_3 Zn3_7 2.764917 1_455
Rh32_3 Zn3_6 2.764917 1_456
Rh32_3 Zn2_3 2.764917 1_555
Rh32_3 Zn2_2 2.764917 1_556
Rh32_4 Zn3_0 2.764917 1_555
Rh32_4 Zn3_1 2.764917 1_555
Rh32_4 Zn2_5 2.764917 1_555
Rh32_4 Zn2_4 2.764917 1_555
Rh32_5 Zn3_0 2.764917 1_556
Rh32_5 Zn3_1 2.764917 1_555
Rh32_5 Zn2_4 2.764917 1_556
Rh32_5 Zn2_5 2.764917 1_555
Rh32_6 Zn3_3 2.764917 1_555
Rh32_6 Zn3_2 2.764917 1_555
Rh32_6 Zn2_6 2.764917 1_555
Rh32_6 Zn2_7 2.764917 1_555
Rh32_7 Zn3_3 2.764917 1_555
Rh32_7 Zn3_2 2.764917 1_556
Rh32_7 Zn2_6 2.764917 1_556
Rh32_7 Zn2_7 2.764917 1_555
Rh33_0 Zn2_4 2.764917 1_555
Rh33_0 Zn2_5 2.764917 1_555
Rh33_0 Zn3_1 2.764917 1_555
Rh33_0 Zn3_0 2.764917 1_555
Rh33_1 Zn2_4 2.764917 1_556
Rh33_1 Zn2_5 2.764917 1_555
Rh33_1 Zn3_1 2.764917 1_555
Rh33_1 Zn3_0 2.764917 1_556
Rh33_2 Zn3_2 2.764917 1_555
Rh33_2 Zn3_3 2.764917 1_555
Rh33_2 Zn2_7 2.764917 1_555
Rh33_2 Zn2_6 2.764917 1_555
Rh33_3 Zn3_3 2.764917 1_555
Rh33_3 Zn3_2 2.764917 1_556
Rh33_3 Zn2_7 2.764917 1_555
Rh33_3 Zn2_6 2.764917 1_556
Rh33_4 Zn2_0 2.764917 1_655
Rh33_4 Zn2_1 2.764917 1_655
Rh33_4 Zn3_5 2.764917 1_555
Rh33_4 Zn3_4 2.764917 1_555
Rh33_5 Zn2_1 2.764917 1_655
Rh33_5 Zn2_0 2.764917 1_656
Rh33_5 Zn3_5 2.764917 1_555
Rh33_5 Zn3_4 2.764917 1_556
Rh33_6 Zn3_6 2.764917 1_555
Rh33_6 Zn2_3 2.764917 1_655
Rh33_6 Zn3_7 2.764917 1_555
Rh33_6 Zn2_2 2.764917 1_655
Rh33_7 Zn2_3 2.764917 1_655
Rh33_7 Zn2_2 2.764917 1_656
Rh33_7 Zn3_7 2.764917 1_555
Rh33_7 Zn3_6 2.764917 1_556
Rh34_0 Zn0_2 2.764917 1_555
Rh34_0 Zn0_3 2.764917 1_555
Rh34_0 Zn1_1 2.764917 1_555
Rh34_0 Zn1_0 2.764917 1_555
Rh34_1 Zn0_2 2.764917 1_556
Rh34_1 Zn0_3 2.764917 1_555
Rh34_1 Zn1_1 2.764917 1_555
Rh34_1 Zn1_0 2.764917 1_556
Rh34_2 Zn0_1 2.764917 1_565
Rh34_2 Zn0_0 2.764917 1_565
Rh34_2 Zn1_2 2.764917 1_555
Rh34_2 Zn1_3 2.764917 1_555
Rh34_3 Zn0_0 2.764917 1_566
Rh34_3 Zn0_1 2.764917 1_565
Rh34_3 Zn1_2 2.764917 1_556
Rh34_3 Zn1_3 2.764917 1_555
Rh34_4 Zn0_7 2.764917 1_555
Rh34_4 Zn0_6 2.764917 1_555
Rh34_4 Zn1_4 2.764917 1_555
Rh34_4 Zn1_5 2.764917 1_555
Rh34_5 Zn0_6 2.764917 1_556
Rh34_5 Zn0_7 2.764917 1_555
Rh34_5 Zn1_4 2.764917 1_556
Rh34_5 Zn1_5 2.764917 1_555
Rh34_6 Zn0_5 2.764917 1_565
Rh34_6 Zn0_4 2.764917 1_565
Rh34_6 Zn1_7 2.764917 1_555
Rh34_6 Zn1_6 2.764917 1_555
Rh34_7 Zn0_5 2.764917 1_565
Rh34_7 Zn0_4 2.764917 1_566
Rh34_7 Zn1_7 2.764917 1_555
Rh34_7 Zn1_6 2.764917 1_556
Rh35_0 Zn0_0 2.764917 1_555
Rh35_0 Zn0_1 2.764917 1_555
Rh35_0 Zn1_2 2.764917 1_545
Rh35_0 Zn1_3 2.764917 1_545
Rh35_1 Zn0_1 2.764917 1_555
Rh35_1 Zn0_0 2.764917 1_556
Rh35_1 Zn1_3 2.764917 1_545
Rh35_1 Zn1_2 2.764917 1_546
Rh35_2 Zn0_2 2.764917 1_555
Rh35_2 Zn1_1 2.764917 1_555
Rh35_2 Zn1_0 2.764917 1_555
Rh35_2 Zn0_3 2.764917 1_555
Rh35_3 Zn1_0 2.764917 1_556
Rh35_3 Zn1_1 2.764917 1_555
Rh35_3 Zn0_2 2.764917 1_556
Rh35_3 Zn0_3 2.764917 1_555
Rh35_4 Zn0_4 2.764917 1_555
Rh35_4 Zn0_5 2.764917 1_555
Rh35_4 Zn1_7 2.764917 1_545
Rh35_4 Zn1_6 2.764917 1_545
Rh35_5 Zn0_5 2.764917 1_555
Rh35_5 Zn0_4 2.764917 1_556
Rh35_5 Zn1_6 2.764917 1_546
Rh35_5 Zn1_7 2.764917 1_545
Rh35_6 Zn0_7 2.764917 1_555
Rh35_6 Zn0_6 2.764917 1_555
Rh35_6 Zn1_5 2.764917 1_555
Rh35_6 Zn1_4 2.764917 1_555
Rh35_7 Zn0_7 2.764917 1_555
Rh35_7 Zn0_6 2.764917 1_556
Rh35_7 Zn1_5 2.764917 1_555
Rh35_7 Zn1_4 2.764917 1_556
