# generated using pymatgen
data_Zn5B3Ir7
_symmetry_space_group_name_H-M   'P 1'
_cell_length_a   5.70184070
_cell_length_b   22.34112382
_cell_length_c   23.57862598
_cell_angle_alpha   90.00000000
_cell_angle_beta   90.00000000
_cell_angle_gamma   90.00000000
_symmetry_Int_Tables_number   1
_chemical_formula_structural   Zn5B3Ir7
_chemical_formula_sum   'Zn80 B48 Ir112'
_cell_volume   3003.57574546
_cell_formula_units_Z   16
loop_
 _symmetry_equiv_pos_site_id
 _symmetry_equiv_pos_as_xyz
  1  'x, y, z'
loop_
 _atom_site_type_symbol
 _atom_site_label
 _atom_site_symmetry_multiplicity
 _atom_site_fract_x
 _atom_site_fract_y
 _atom_site_fract_z
 _atom_site_occupancy
  Zn  Zn0_0  1  0.25000000  0.37500000  0.09463648  1
  Zn  Zn0_1  1  0.25000000  0.37500000  0.59463647  1
  Zn  Zn0_2  1  0.25000000  0.87500000  0.09463648  1
  Zn  Zn0_3  1  0.25000000  0.87500000  0.59463647  1
  Zn  Zn0_4  1  0.75000000  0.37500000  0.09463648  1
  Zn  Zn0_5  1  0.75000000  0.37500000  0.59463647  1
  Zn  Zn0_6  1  0.75000000  0.87500000  0.09463648  1
  Zn  Zn0_7  1  0.75000000  0.87500000  0.59463647  1
  Zn  Zn1_0  1  0.25000000  0.12500000  0.40536353  1
  Zn  Zn1_1  1  0.25000000  0.12500000  0.90536352  1
  Zn  Zn1_2  1  0.25000000  0.62500000  0.40536353  1
  Zn  Zn1_3  1  0.25000000  0.62500000  0.90536352  1
  Zn  Zn1_4  1  0.75000000  0.12500000  0.40536353  1
  Zn  Zn1_5  1  0.75000000  0.12500000  0.90536352  1
  Zn  Zn1_6  1  0.75000000  0.62500000  0.40536353  1
  Zn  Zn1_7  1  0.75000000  0.62500000  0.90536352  1
  Zn  Zn2_0  1  0.25000000  0.22538264  0.06783657  1
  Zn  Zn2_1  1  0.25000000  0.22538264  0.56783657  1
  Zn  Zn2_2  1  0.25000000  0.72538264  0.06783657  1
  Zn  Zn2_3  1  0.25000000  0.72538264  0.56783657  1
  Zn  Zn2_4  1  0.75000000  0.22538264  0.06783657  1
  Zn  Zn2_5  1  0.75000000  0.22538264  0.56783657  1
  Zn  Zn2_6  1  0.75000000  0.72538264  0.06783657  1
  Zn  Zn2_7  1  0.75000000  0.72538264  0.56783657  1
  Zn  Zn3_0  1  0.25000000  0.27461736  0.43216343  1
  Zn  Zn3_1  1  0.25000000  0.27461736  0.93216343  1
  Zn  Zn3_2  1  0.25000000  0.77461736  0.43216343  1
  Zn  Zn3_3  1  0.25000000  0.77461736  0.93216343  1
  Zn  Zn3_4  1  0.75000000  0.27461736  0.43216343  1
  Zn  Zn3_5  1  0.75000000  0.27461736  0.93216343  1
  Zn  Zn3_6  1  0.75000000  0.77461736  0.43216343  1
  Zn  Zn3_7  1  0.75000000  0.77461736  0.93216343  1
  Zn  Zn4_0  1  0.25000000  0.02461736  0.06783657  1
  Zn  Zn4_1  1  0.25000000  0.02461736  0.56783657  1
  Zn  Zn4_2  1  0.25000000  0.52461736  0.06783657  1
  Zn  Zn4_3  1  0.25000000  0.52461736  0.56783657  1
  Zn  Zn4_4  1  0.75000000  0.02461736  0.06783657  1
  Zn  Zn4_5  1  0.75000000  0.02461736  0.56783657  1
  Zn  Zn4_6  1  0.75000000  0.52461736  0.06783657  1
  Zn  Zn4_7  1  0.75000000  0.52461736  0.56783657  1
  Zn  Zn5_0  1  0.25000000  0.47538264  0.43216343  1
  Zn  Zn5_1  1  0.25000000  0.47538264  0.93216343  1
  Zn  Zn5_2  1  0.25000000  0.97538264  0.43216343  1
  Zn  Zn5_3  1  0.25000000  0.97538264  0.93216343  1
  Zn  Zn5_4  1  0.75000000  0.47538264  0.43216343  1
  Zn  Zn5_5  1  0.75000000  0.47538264  0.93216343  1
  Zn  Zn5_6  1  0.75000000  0.97538264  0.43216343  1
  Zn  Zn5_7  1  0.75000000  0.97538264  0.93216343  1
  Zn  Zn6_0  1  0.25000000  0.18397303  0.17270478  1
  Zn  Zn6_1  1  0.25000000  0.18397303  0.67270479  1
  Zn  Zn6_2  1  0.25000000  0.68397303  0.17270478  1
  Zn  Zn6_3  1  0.25000000  0.68397303  0.67270479  1
  Zn  Zn6_4  1  0.75000000  0.18397303  0.17270478  1
  Zn  Zn6_5  1  0.75000000  0.18397303  0.67270479  1
  Zn  Zn6_6  1  0.75000000  0.68397303  0.17270478  1
  Zn  Zn6_7  1  0.75000000  0.68397303  0.67270479  1
  Zn  Zn7_0  1  0.25000000  0.31602696  0.32729521  1
  Zn  Zn7_1  1  0.25000000  0.31602696  0.82729521  1
  Zn  Zn7_2  1  0.25000000  0.81602696  0.32729521  1
  Zn  Zn7_3  1  0.25000000  0.81602696  0.82729521  1
  Zn  Zn7_4  1  0.75000000  0.31602696  0.32729521  1
  Zn  Zn7_5  1  0.75000000  0.31602696  0.82729521  1
  Zn  Zn7_6  1  0.75000000  0.81602696  0.32729521  1
  Zn  Zn7_7  1  0.75000000  0.81602696  0.82729521  1
  Zn  Zn8_0  1  0.25000000  0.06602697  0.17270478  1
  Zn  Zn8_1  1  0.25000000  0.06602697  0.67270479  1
  Zn  Zn8_2  1  0.25000000  0.56602697  0.17270478  1
  Zn  Zn8_3  1  0.25000000  0.56602697  0.67270479  1
  Zn  Zn8_4  1  0.75000000  0.06602697  0.17270478  1
  Zn  Zn8_5  1  0.75000000  0.06602697  0.67270479  1
  Zn  Zn8_6  1  0.75000000  0.56602697  0.17270478  1
  Zn  Zn8_7  1  0.75000000  0.56602697  0.67270479  1
  Zn  Zn9_0  1  0.25000000  0.43397303  0.32729521  1
  Zn  Zn9_1  1  0.25000000  0.43397303  0.82729521  1
  Zn  Zn9_2  1  0.25000000  0.93397304  0.32729521  1
  Zn  Zn9_3  1  0.25000000  0.93397304  0.82729521  1
  Zn  Zn9_4  1  0.75000000  0.43397303  0.32729521  1
  Zn  Zn9_5  1  0.75000000  0.43397303  0.82729521  1
  Zn  Zn9_6  1  0.75000000  0.93397304  0.32729521  1
  Zn  Zn9_7  1  0.75000000  0.93397304  0.82729521  1
  B  B0_0  1  0.25000000  0.37500000  0.48191095  1
  B  B0_1  1  0.25000000  0.37500000  0.98191095  1
  B  B0_2  1  0.25000000  0.87500000  0.48191095  1
  B  B0_3  1  0.25000000  0.87500000  0.98191095  1
  B  B0_4  1  0.75000000  0.37500000  0.48191095  1
  B  B0_5  1  0.75000000  0.37500000  0.98191095  1
  B  B0_6  1  0.75000000  0.87500000  0.48191095  1
  B  B0_7  1  0.75000000  0.87500000  0.98191095  1
  B  B1_0  1  0.25000000  0.12500000  0.01808905  1
  B  B1_1  1  0.25000000  0.12500000  0.51808905  1
  B  B1_2  1  0.25000000  0.62500000  0.01808905  1
  B  B1_3  1  0.25000000  0.62500000  0.51808905  1
  B  B1_4  1  0.75000000  0.12500000  0.01808905  1
  B  B1_5  1  0.75000000  0.12500000  0.51808905  1
  B  B1_6  1  0.75000000  0.62500000  0.01808905  1
  B  B1_7  1  0.75000000  0.62500000  0.51808905  1
  B  B2_0  1  0.25000000  0.44123307  0.20384791  1
  B  B2_1  1  0.25000000  0.44123307  0.70384791  1
  B  B2_2  1  0.25000000  0.94123307  0.20384791  1
  B  B2_3  1  0.25000000  0.94123307  0.70384791  1
  B  B2_4  1  0.75000000  0.44123307  0.20384791  1
  B  B2_5  1  0.75000000  0.44123307  0.70384791  1
  B  B2_6  1  0.75000000  0.94123307  0.20384791  1
  B  B2_7  1  0.75000000  0.94123307  0.70384791  1
  B  B3_0  1  0.25000000  0.05876692  0.29615209  1
  B  B3_1  1  0.25000000  0.05876692  0.79615209  1
  B  B3_2  1  0.25000000  0.55876692  0.29615209  1
  B  B3_3  1  0.25000000  0.55876692  0.79615209  1
  B  B3_4  1  0.75000000  0.05876692  0.29615209  1
  B  B3_5  1  0.75000000  0.05876692  0.79615209  1
  B  B3_6  1  0.75000000  0.55876692  0.29615209  1
  B  B3_7  1  0.75000000  0.55876692  0.79615209  1
  B  B4_0  1  0.25000000  0.30876693  0.20384791  1
  B  B4_1  1  0.25000000  0.30876693  0.70384791  1
  B  B4_2  1  0.25000000  0.80876693  0.20384791  1
  B  B4_3  1  0.25000000  0.80876693  0.70384791  1
  B  B4_4  1  0.75000000  0.30876693  0.20384791  1
  B  B4_5  1  0.75000000  0.30876693  0.70384791  1
  B  B4_6  1  0.75000000  0.80876693  0.20384791  1
  B  B4_7  1  0.75000000  0.80876693  0.70384791  1
  B  B5_0  1  0.25000000  0.19123308  0.29615209  1
  B  B5_1  1  0.25000000  0.19123308  0.79615209  1
  B  B5_2  1  0.25000000  0.69123307  0.29615209  1
  B  B5_3  1  0.25000000  0.69123307  0.79615209  1
  B  B5_4  1  0.75000000  0.19123308  0.29615209  1
  B  B5_5  1  0.75000000  0.19123308  0.79615209  1
  B  B5_6  1  0.75000000  0.69123307  0.29615209  1
  B  B5_7  1  0.75000000  0.69123307  0.79615209  1
  Ir  Ir0_0  1  0.00000000  0.00000000  0.25000000  1
  Ir  Ir0_1  1  0.00000000  0.00000000  0.75000000  1
  Ir  Ir0_2  1  0.00000000  0.50000000  0.25000000  1
  Ir  Ir0_3  1  0.00000000  0.50000000  0.75000000  1
  Ir  Ir0_4  1  0.50000000  0.00000000  0.25000000  1
  Ir  Ir0_5  1  0.50000000  0.00000000  0.75000000  1
  Ir  Ir0_6  1  0.50000000  0.50000000  0.25000000  1
  Ir  Ir0_7  1  0.50000000  0.50000000  0.75000000  1
  Ir  Ir1_0  1  0.00000000  0.25000000  0.25000000  1
  Ir  Ir1_1  1  0.00000000  0.25000000  0.75000000  1
  Ir  Ir1_2  1  0.00000000  0.75000000  0.25000000  1
  Ir  Ir1_3  1  0.00000000  0.75000000  0.75000000  1
  Ir  Ir1_4  1  0.50000000  0.25000000  0.25000000  1
  Ir  Ir1_5  1  0.50000000  0.25000000  0.75000000  1
  Ir  Ir1_6  1  0.50000000  0.75000000  0.25000000  1
  Ir  Ir1_7  1  0.50000000  0.75000000  0.75000000  1
  Ir  Ir2_0  1  0.00000000  0.37500000  0.41001494  1
  Ir  Ir2_1  1  0.00000000  0.37500000  0.91001494  1
  Ir  Ir2_2  1  0.00000000  0.87500000  0.41001494  1
  Ir  Ir2_3  1  0.00000000  0.87500000  0.91001494  1
  Ir  Ir2_4  1  0.50000000  0.37500000  0.41001494  1
  Ir  Ir2_5  1  0.50000000  0.37500000  0.91001494  1
  Ir  Ir2_6  1  0.50000000  0.87500000  0.41001494  1
  Ir  Ir2_7  1  0.50000000  0.87500000  0.91001494  1
  Ir  Ir3_0  1  0.00000000  0.12500000  0.08998506  1
  Ir  Ir3_1  1  0.00000000  0.12500000  0.58998506  1
  Ir  Ir3_2  1  0.00000000  0.62500000  0.08998506  1
  Ir  Ir3_3  1  0.00000000  0.62500000  0.58998506  1
  Ir  Ir3_4  1  0.50000000  0.12500000  0.08998506  1
  Ir  Ir3_5  1  0.50000000  0.12500000  0.58998506  1
  Ir  Ir3_6  1  0.50000000  0.62500000  0.08998506  1
  Ir  Ir3_7  1  0.50000000  0.62500000  0.58998506  1
  Ir  Ir4_0  1  0.00000000  0.37500000  0.23835200  1
  Ir  Ir4_1  1  0.00000000  0.37500000  0.73835200  1
  Ir  Ir4_2  1  0.00000000  0.87500000  0.23835200  1
  Ir  Ir4_3  1  0.00000000  0.87500000  0.73835200  1
  Ir  Ir4_4  1  0.50000000  0.37500000  0.23835200  1
  Ir  Ir4_5  1  0.50000000  0.37500000  0.73835200  1
  Ir  Ir4_6  1  0.50000000  0.87500000  0.23835200  1
  Ir  Ir4_7  1  0.50000000  0.87500000  0.73835200  1
  Ir  Ir5_0  1  0.00000000  0.12500000  0.26164801  1
  Ir  Ir5_1  1  0.00000000  0.12500000  0.76164800  1
  Ir  Ir5_2  1  0.00000000  0.62500000  0.26164801  1
  Ir  Ir5_3  1  0.00000000  0.62500000  0.76164800  1
  Ir  Ir5_4  1  0.50000000  0.12500000  0.26164801  1
  Ir  Ir5_5  1  0.50000000  0.12500000  0.76164800  1
  Ir  Ir5_6  1  0.50000000  0.62500000  0.26164801  1
  Ir  Ir5_7  1  0.50000000  0.62500000  0.76164800  1
  Ir  Ir6_0  1  0.00000000  0.43787009  0.01928327  1
  Ir  Ir6_1  1  0.00000000  0.43787009  0.51928327  1
  Ir  Ir6_2  1  0.00000000  0.93787009  0.01928327  1
  Ir  Ir6_3  1  0.00000000  0.93787009  0.51928327  1
  Ir  Ir6_4  1  0.50000000  0.43787009  0.01928327  1
  Ir  Ir6_5  1  0.50000000  0.43787009  0.51928327  1
  Ir  Ir6_6  1  0.50000000  0.93787009  0.01928327  1
  Ir  Ir6_7  1  0.50000000  0.93787009  0.51928327  1
  Ir  Ir7_0  1  0.00000000  0.06212991  0.48071673  1
  Ir  Ir7_1  1  0.00000000  0.06212991  0.98071673  1
  Ir  Ir7_2  1  0.00000000  0.56212991  0.48071673  1
  Ir  Ir7_3  1  0.00000000  0.56212991  0.98071673  1
  Ir  Ir7_4  1  0.50000000  0.06212991  0.48071673  1
  Ir  Ir7_5  1  0.50000000  0.06212991  0.98071673  1
  Ir  Ir7_6  1  0.50000000  0.56212991  0.48071673  1
  Ir  Ir7_7  1  0.50000000  0.56212991  0.98071673  1
  Ir  Ir8_0  1  0.00000000  0.31212991  0.01928327  1
  Ir  Ir8_1  1  0.00000000  0.31212991  0.51928327  1
  Ir  Ir8_2  1  0.00000000  0.81212991  0.01928327  1
  Ir  Ir8_3  1  0.00000000  0.81212991  0.51928327  1
  Ir  Ir8_4  1  0.50000000  0.31212991  0.01928327  1
  Ir  Ir8_5  1  0.50000000  0.31212991  0.51928327  1
  Ir  Ir8_6  1  0.50000000  0.81212991  0.01928327  1
  Ir  Ir8_7  1  0.50000000  0.81212991  0.51928327  1
  Ir  Ir9_0  1  0.00000000  0.18787008  0.48071673  1
  Ir  Ir9_1  1  0.00000000  0.18787008  0.98071673  1
  Ir  Ir9_2  1  0.00000000  0.68787009  0.48071673  1
  Ir  Ir9_3  1  0.00000000  0.68787009  0.98071673  1
  Ir  Ir9_4  1  0.50000000  0.18787008  0.48071673  1
  Ir  Ir9_5  1  0.50000000  0.18787008  0.98071673  1
  Ir  Ir9_6  1  0.50000000  0.68787009  0.48071673  1
  Ir  Ir9_7  1  0.50000000  0.68787009  0.98071673  1
  Ir  Ir10_0  1  0.00000000  0.45995735  0.13895326  1
  Ir  Ir10_1  1  0.00000000  0.45995735  0.63895326  1
  Ir  Ir10_2  1  0.00000000  0.95995735  0.13895326  1
  Ir  Ir10_3  1  0.00000000  0.95995735  0.63895326  1
  Ir  Ir10_4  1  0.50000000  0.45995735  0.13895326  1
  Ir  Ir10_5  1  0.50000000  0.45995735  0.63895326  1
  Ir  Ir10_6  1  0.50000000  0.95995735  0.13895326  1
  Ir  Ir10_7  1  0.50000000  0.95995735  0.63895326  1
  Ir  Ir11_0  1  0.00000000  0.04004265  0.36104674  1
  Ir  Ir11_1  1  0.00000000  0.04004265  0.86104674  1
  Ir  Ir11_2  1  0.00000000  0.54004265  0.36104674  1
  Ir  Ir11_3  1  0.00000000  0.54004265  0.86104674  1
  Ir  Ir11_4  1  0.50000000  0.04004265  0.36104674  1
  Ir  Ir11_5  1  0.50000000  0.04004265  0.86104674  1
  Ir  Ir11_6  1  0.50000000  0.54004265  0.36104674  1
  Ir  Ir11_7  1  0.50000000  0.54004265  0.86104674  1
  Ir  Ir12_0  1  0.00000000  0.29004265  0.13895326  1
  Ir  Ir12_1  1  0.00000000  0.29004265  0.63895326  1
  Ir  Ir12_2  1  0.00000000  0.79004265  0.13895326  1
  Ir  Ir12_3  1  0.00000000  0.79004265  0.63895326  1
  Ir  Ir12_4  1  0.50000000  0.29004265  0.13895326  1
  Ir  Ir12_5  1  0.50000000  0.29004265  0.63895326  1
  Ir  Ir12_6  1  0.50000000  0.79004265  0.13895326  1
  Ir  Ir12_7  1  0.50000000  0.79004265  0.63895326  1
  Ir  Ir13_0  1  0.00000000  0.20995735  0.36104674  1
  Ir  Ir13_1  1  0.00000000  0.20995735  0.86104674  1
  Ir  Ir13_2  1  0.00000000  0.70995735  0.36104674  1
  Ir  Ir13_3  1  0.00000000  0.70995735  0.86104674  1
  Ir  Ir13_4  1  0.50000000  0.20995735  0.36104674  1
  Ir  Ir13_5  1  0.50000000  0.20995735  0.86104674  1
  Ir  Ir13_6  1  0.50000000  0.70995735  0.36104674  1
  Ir  Ir13_7  1  0.50000000  0.70995735  0.86104674  1
loop_
_geom_bond_atom_site_label_1
_geom_bond_atom_site_label_2
_geom_bond_distance
_geom_bond_site_symmetry_2
Zn2_0 Zn6_0 2.640051 1_555
Zn2_0 Zn2_4 2.850920 1_455
Zn2_0 Zn2_4 2.850920 1_555
Zn2_1 Zn6_1 2.640051 1_555
Zn2_1 Zn2_5 2.850920 1_455
Zn2_1 Zn2_5 2.850920 1_555
Zn2_2 Zn6_2 2.640051 1_555
Zn2_2 Zn2_6 2.850920 1_455
Zn2_2 Zn2_6 2.850920 1_555
Zn2_3 Zn6_3 2.640051 1_555
Zn2_3 Zn2_7 2.850920 1_455
Zn2_3 Zn2_7 2.850920 1_555
Zn2_4 Zn6_4 2.640051 1_555
Zn2_5 Zn6_5 2.640051 1_555
Zn2_6 Zn6_6 2.640051 1_555
Zn2_7 Zn6_7 2.640051 1_555
Zn3_0 Zn7_0 2.640051 1_555
Zn3_0 Zn3_4 2.850920 1_455
Zn3_0 Zn3_4 2.850920 1_555
Zn3_1 Zn7_1 2.640051 1_555
Zn3_1 Zn3_5 2.850920 1_455
Zn3_1 Zn3_5 2.850920 1_555
Zn3_2 Zn7_2 2.640051 1_555
Zn3_2 Zn3_6 2.850920 1_455
Zn3_2 Zn3_6 2.850920 1_555
Zn3_3 Zn7_3 2.640051 1_555
Zn3_3 Zn3_7 2.850920 1_455
Zn3_3 Zn3_7 2.850920 1_555
Zn3_4 Zn7_4 2.640051 1_555
Zn3_5 Zn7_5 2.640051 1_555
Zn3_6 Zn7_6 2.640051 1_555
Zn3_7 Zn7_7 2.640051 1_555
Zn4_0 Zn8_0 2.640051 1_555
Zn4_0 Zn4_4 2.850920 1_455
Zn4_0 Zn4_4 2.850920 1_555
Zn4_1 Zn8_1 2.640051 1_555
Zn4_1 Zn4_5 2.850920 1_455
Zn4_1 Zn4_5 2.850920 1_555
Zn4_2 Zn8_2 2.640051 1_555
Zn4_2 Zn4_6 2.850920 1_455
Zn4_2 Zn4_6 2.850920 1_555
Zn4_3 Zn8_3 2.640051 1_555
Zn4_3 Zn4_7 2.850920 1_455
Zn4_3 Zn4_7 2.850920 1_555
Zn4_4 Zn8_4 2.640051 1_555
Zn4_5 Zn8_5 2.640051 1_555
Zn4_6 Zn8_6 2.640051 1_555
Zn4_7 Zn8_7 2.640051 1_555
Zn5_0 Zn9_0 2.640051 1_555
Zn5_0 Zn5_4 2.850920 1_455
Zn5_0 Zn5_4 2.850920 1_555
Zn5_1 Zn9_1 2.640051 1_555
Zn5_1 Zn5_5 2.850920 1_455
Zn5_1 Zn5_5 2.850920 1_555
Zn5_2 Zn9_2 2.640051 1_555
Zn5_2 Zn5_6 2.850920 1_455
Zn5_2 Zn5_6 2.850920 1_555
Zn5_3 Zn9_3 2.640051 1_555
Zn5_3 Zn5_7 2.850920 1_455
Zn5_3 Zn5_7 2.850920 1_555
Zn5_4 Zn9_4 2.640051 1_555
Zn5_5 Zn9_5 2.640051 1_555
Zn5_6 Zn9_6 2.640051 1_555
Zn5_7 Zn9_7 2.640051 1_555
Zn6_0 Zn8_0 2.635048 1_555
Zn6_0 Zn6_4 2.850920 1_455
Zn6_0 Zn6_4 2.850920 1_555
Zn6_1 Zn8_1 2.635048 1_555
Zn6_1 Zn6_5 2.850920 1_455
Zn6_1 Zn6_5 2.850920 1_555
Zn6_2 Zn8_2 2.635048 1_555
Zn6_2 Zn6_6 2.850920 1_455
Zn6_2 Zn6_6 2.850920 1_555
Zn6_3 Zn8_3 2.635048 1_555
Zn6_3 Zn6_7 2.850920 1_455
Zn6_3 Zn6_7 2.850920 1_555
Zn6_4 Zn8_4 2.635048 1_555
Zn6_5 Zn8_5 2.635048 1_555
Zn6_6 Zn8_6 2.635048 1_555
Zn6_7 Zn8_7 2.635048 1_555
Zn7_0 Zn9_0 2.635048 1_555
Zn7_0 Zn7_4 2.850920 1_455
Zn7_0 Zn7_4 2.850920 1_555
Zn7_1 Zn9_1 2.635048 1_555
Zn7_1 Zn7_5 2.850920 1_455
Zn7_1 Zn7_5 2.850920 1_555
Zn7_2 Zn9_2 2.635048 1_555
Zn7_2 Zn7_6 2.850920 1_455
Zn7_2 Zn7_6 2.850920 1_555
Zn7_3 Zn9_3 2.635048 1_555
Zn7_3 Zn7_7 2.850920 1_455
Zn7_3 Zn7_7 2.850920 1_555
Zn7_4 Zn9_4 2.635048 1_555
Zn7_5 Zn9_5 2.635048 1_555
Zn7_6 Zn9_6 2.635048 1_555
Zn7_7 Zn9_7 2.635048 1_555
Zn8_0 Zn8_4 2.850920 1_455
Zn8_0 Zn8_4 2.850920 1_555
Zn8_1 Zn8_5 2.850920 1_455
Zn8_1 Zn8_5 2.850920 1_555
Zn8_2 Zn8_6 2.850920 1_455
Zn8_2 Zn8_6 2.850920 1_555
Zn8_3 Zn8_7 2.850920 1_455
Zn8_3 Zn8_7 2.850920 1_555
Zn9_0 Zn9_4 2.850920 1_455
Zn9_0 Zn9_4 2.850920 1_555
Zn9_1 Zn9_5 2.850920 1_455
Zn9_1 Zn9_5 2.850920 1_555
Zn9_2 Zn9_6 2.850920 1_455
Zn9_2 Zn9_6 2.850920 1_555
Zn9_3 Zn9_7 2.850920 1_455
Zn9_3 Zn9_7 2.850920 1_555
B0_0 Ir8_1 2.186618 1_555
B0_0 Ir8_5 2.186618 1_555
B0_0 Ir6_1 2.186618 1_555
B0_0 Ir6_5 2.186618 1_555
B0_0 Ir2_0 2.214875 1_555
B0_0 Ir2_4 2.214875 1_555
B0_0 Zn3_0 2.530890 1_555
B0_0 Zn5_0 2.530890 1_555
B0_0 Zn0_1 2.657913 1_555
B0_1 Ir8_0 2.186618 1_556
B0_1 Ir8_4 2.186618 1_556
B0_1 Ir6_0 2.186618 1_556
B0_1 Ir6_4 2.186618 1_556
B0_1 Ir2_1 2.214875 1_555
B0_1 Ir2_5 2.214875 1_555
B0_1 Zn3_1 2.530890 1_555
B0_1 Zn5_1 2.530890 1_555
B0_1 Zn0_0 2.657913 1_556
B0_2 Ir8_7 2.186618 1_555
B0_2 Ir8_3 2.186618 1_555
B0_2 Ir6_3 2.186618 1_555
B0_2 Ir6_7 2.186618 1_555
B0_2 Ir2_6 2.214875 1_555
B0_2 Ir2_2 2.214875 1_555
B0_2 Zn3_2 2.530890 1_555
B0_2 Zn5_2 2.530890 1_555
B0_2 Zn0_3 2.657913 1_555
B0_3 Ir8_2 2.186618 1_556
B0_3 Ir8_6 2.186618 1_556
B0_3 Ir6_6 2.186618 1_556
B0_3 Ir6_2 2.186618 1_556
B0_3 Ir2_3 2.214875 1_555
B0_3 Ir2_7 2.214875 1_555
B0_3 Zn3_3 2.530890 1_555
B0_3 Zn5_3 2.530890 1_555
B0_3 Zn0_2 2.657913 1_556
B0_4 Ir8_1 2.186618 1_655
B0_4 Ir8_5 2.186618 1_555
B0_4 Ir6_1 2.186618 1_655
B0_4 Ir6_5 2.186618 1_555
B0_4 Ir2_0 2.214875 1_655
B0_4 Ir2_4 2.214875 1_555
B0_4 Zn3_4 2.530890 1_555
B0_4 Zn5_4 2.530890 1_555
B0_4 Zn0_5 2.657913 1_555
B0_5 Ir8_0 2.186618 1_656
B0_5 Ir8_4 2.186618 1_556
B0_5 Ir6_0 2.186618 1_656
B0_5 Ir6_4 2.186618 1_556
B0_5 Ir2_1 2.214875 1_655
B0_5 Ir2_5 2.214875 1_555
B0_5 Zn3_5 2.530890 1_555
B0_5 Zn5_5 2.530890 1_555
B0_5 Zn0_4 2.657913 1_556
B0_6 Ir8_3 2.186618 1_655
B0_6 Ir8_7 2.186618 1_555
B0_6 Ir6_3 2.186618 1_655
B0_6 Ir6_7 2.186618 1_555
B0_6 Ir2_2 2.214875 1_655
B0_6 Ir2_6 2.214875 1_555
B0_6 Zn3_6 2.530890 1_555
B0_6 Zn5_6 2.530890 1_555
B0_6 Zn0_7 2.657913 1_555
B0_7 Ir8_2 2.186618 1_656
B0_7 Ir8_6 2.186618 1_556
B0_7 Ir6_2 2.186618 1_656
B0_7 Ir6_6 2.186618 1_556
B0_7 Ir2_3 2.214875 1_655
B0_7 Ir2_7 2.214875 1_555
B0_7 Zn3_7 2.530890 1_555
B0_7 Zn5_7 2.530890 1_555
B0_7 Zn0_6 2.657913 1_556
B1_0 Ir7_1 2.186618 1_554
B1_0 Ir9_1 2.186618 1_554
B1_0 Ir7_5 2.186618 1_554
B1_0 Ir9_5 2.186618 1_554
B1_0 Ir3_0 2.214875 1_555
B1_0 Ir3_4 2.214875 1_555
B1_0 Zn2_0 2.530890 1_555
B1_0 Zn4_0 2.530890 1_555
B1_0 Zn1_1 2.657913 1_554
B1_1 Ir9_0 2.186618 1_555
B1_1 Ir9_4 2.186618 1_555
B1_1 Ir7_0 2.186618 1_555
B1_1 Ir7_4 2.186618 1_555
B1_1 Ir3_1 2.214875 1_555
B1_1 Ir3_5 2.214875 1_555
B1_1 Zn4_1 2.530890 1_555
B1_1 Zn2_1 2.530890 1_555
B1_1 Zn1_0 2.657913 1_555
B1_2 Ir9_7 2.186618 1_554
B1_2 Ir7_3 2.186618 1_554
B1_2 Ir7_7 2.186618 1_554
B1_2 Ir9_3 2.186618 1_554
B1_2 Ir3_2 2.214875 1_555
B1_2 Ir3_6 2.214875 1_555
B1_2 Zn2_2 2.530890 1_555
B1_2 Zn4_2 2.530890 1_555
B1_2 Zn1_3 2.657913 1_554
B1_3 Ir9_6 2.186618 1_555
B1_3 Ir7_2 2.186618 1_555
B1_3 Ir7_6 2.186618 1_555
B1_3 Ir9_2 2.186618 1_555
B1_3 Ir3_7 2.214875 1_555
B1_3 Ir3_3 2.214875 1_555
B1_3 Zn2_3 2.530890 1_555
B1_3 Zn4_3 2.530890 1_555
B1_3 Zn1_2 2.657913 1_555
B1_4 Ir9_1 2.186618 1_654
B1_4 Ir7_1 2.186618 1_654
B1_4 Ir9_5 2.186618 1_554
B1_4 Ir7_5 2.186618 1_554
B1_4 Ir3_0 2.214875 1_655
B1_4 Ir3_4 2.214875 1_555
B1_4 Zn2_4 2.530890 1_555
B1_4 Zn4_4 2.530890 1_555
B1_4 Zn1_5 2.657913 1_554
B1_5 Ir9_0 2.186618 1_655
B1_5 Ir7_0 2.186618 1_655
B1_5 Ir7_4 2.186618 1_555
B1_5 Ir9_4 2.186618 1_555
B1_5 Ir3_1 2.214875 1_655
B1_5 Ir3_5 2.214875 1_555
B1_5 Zn4_5 2.530890 1_555
B1_5 Zn2_5 2.530890 1_555
B1_5 Zn1_4 2.657913 1_555
B1_6 Ir7_3 2.186618 1_654
B1_6 Ir9_3 2.186618 1_654
B1_6 Ir7_7 2.186618 1_554
B1_6 Ir9_7 2.186618 1_554
B1_6 Ir3_2 2.214875 1_655
B1_6 Ir3_6 2.214875 1_555
B1_6 Zn2_6 2.530890 1_555
B1_6 Zn4_6 2.530890 1_555
B1_6 Zn1_7 2.657913 1_554
B1_7 Ir7_2 2.186618 1_655
B1_7 Ir9_2 2.186618 1_655
B1_7 Ir7_6 2.186618 1_555
B1_7 Ir9_6 2.186618 1_555
B1_7 Ir3_3 2.214875 1_655
B1_7 Ir3_7 2.214875 1_555
B1_7 Zn2_7 2.530890 1_555
B1_7 Zn4_7 2.530890 1_555
B1_7 Zn1_6 2.657913 1_555
B2_0 Ir10_0 2.132655 1_555
B2_0 Ir10_4 2.132655 1_555
B2_0 Ir4_0 2.209839 1_555
B2_0 Ir4_4 2.209839 1_555
B2_0 Ir0_6 2.222584 1_555
B2_0 Ir0_2 2.222584 1_555
B2_1 Ir10_1 2.132655 1_555
B2_1 Ir10_5 2.132655 1_555
B2_1 Ir4_5 2.209839 1_555
B2_1 Ir4_1 2.209839 1_555
B2_1 Ir0_7 2.222584 1_555
B2_1 Ir0_3 2.222584 1_555
B2_2 Ir10_2 2.132655 1_555
B2_2 Ir10_6 2.132655 1_555
B2_2 Ir4_2 2.209839 1_555
B2_2 Ir4_6 2.209839 1_555
B2_2 Ir0_0 2.222584 1_565
B2_2 Ir0_4 2.222584 1_565
B2_3 Ir10_3 2.132655 1_555
B2_3 Ir10_7 2.132655 1_555
B2_3 Ir4_3 2.209839 1_555
B2_3 Ir4_7 2.209839 1_555
B2_3 Ir0_1 2.222584 1_565
B2_3 Ir0_5 2.222584 1_565
B2_4 Ir10_0 2.132655 1_655
B2_4 Ir10_4 2.132655 1_555
B2_4 Ir4_0 2.209839 1_655
B2_4 Ir4_4 2.209839 1_555
B2_4 Ir0_2 2.222584 1_655
B2_4 Ir0_6 2.222584 1_555
B2_5 Ir10_1 2.132655 1_655
B2_5 Ir10_5 2.132655 1_555
B2_5 Ir4_1 2.209839 1_655
B2_5 Ir4_5 2.209839 1_555
B2_5 Ir0_3 2.222584 1_655
B2_5 Ir0_7 2.222584 1_555
B2_6 Ir10_2 2.132655 1_655
B2_6 Ir10_6 2.132655 1_555
B2_6 Ir4_2 2.209839 1_655
B2_6 Ir4_6 2.209839 1_555
B2_6 Ir0_0 2.222584 1_665
B2_6 Ir0_4 2.222584 1_565
B2_7 Ir10_3 2.132655 1_655
B2_7 Ir10_7 2.132655 1_555
B2_7 Ir4_3 2.209839 1_655
B2_7 Ir4_7 2.209839 1_555
B2_7 Ir0_1 2.222584 1_665
B2_7 Ir0_5 2.222584 1_565
B3_0 Ir11_4 2.132655 1_555
B3_0 Ir11_0 2.132655 1_555
B3_0 Ir5_0 2.209839 1_555
B3_0 Ir5_4 2.209839 1_555
B3_0 Ir0_0 2.222584 1_555
B3_0 Ir0_4 2.222584 1_555
B3_1 Ir11_1 2.132655 1_555
B3_1 Ir11_5 2.132655 1_555
B3_1 Ir5_5 2.209839 1_555
B3_1 Ir5_1 2.209839 1_555
B3_1 Ir0_5 2.222584 1_555
B3_1 Ir0_1 2.222584 1_555
B3_2 Ir11_6 2.132655 1_555
B3_2 Ir11_2 2.132655 1_555
B3_2 Ir5_2 2.209839 1_555
B3_2 Ir5_6 2.209839 1_555
B3_2 Ir0_6 2.222584 1_555
B3_2 Ir0_2 2.222584 1_555
B3_3 Ir11_3 2.132655 1_555
B3_3 Ir11_7 2.132655 1_555
B3_3 Ir5_7 2.209839 1_555
B3_3 Ir5_3 2.209839 1_555
B3_3 Ir0_7 2.222584 1_555
B3_3 Ir0_3 2.222584 1_555
B3_4 Ir11_0 2.132655 1_655
B3_4 Ir11_4 2.132655 1_555
B3_4 Ir5_0 2.209839 1_655
B3_4 Ir5_4 2.209839 1_555
B3_4 Ir0_0 2.222584 1_655
B3_4 Ir0_4 2.222584 1_555
B3_5 Ir11_1 2.132655 1_655
B3_5 Ir11_5 2.132655 1_555
B3_5 Ir5_1 2.209839 1_655
B3_5 Ir5_5 2.209839 1_555
B3_5 Ir0_1 2.222584 1_655
B3_5 Ir0_5 2.222584 1_555
B3_6 Ir11_2 2.132655 1_655
B3_6 Ir11_6 2.132655 1_555
B3_6 Ir5_2 2.209839 1_655
B3_6 Ir5_6 2.209839 1_555
B3_6 Ir0_2 2.222584 1_655
B3_6 Ir0_6 2.222584 1_555
B3_7 Ir11_3 2.132655 1_655
B3_7 Ir11_7 2.132655 1_555
B3_7 Ir5_3 2.209839 1_655
B3_7 Ir5_7 2.209839 1_555
B3_7 Ir0_3 2.222584 1_655
B3_7 Ir0_7 2.222584 1_555
B4_0 Ir12_0 2.132655 1_555
B4_0 Ir12_4 2.132655 1_555
B4_0 Ir4_0 2.209839 1_555
B4_0 Ir4_4 2.209839 1_555
B4_0 Ir1_0 2.222584 1_555
B4_0 Ir1_4 2.222584 1_555
B4_1 Ir12_1 2.132655 1_555
B4_1 Ir12_5 2.132655 1_555
B4_1 Ir4_1 2.209839 1_555
B4_1 Ir4_5 2.209839 1_555
B4_1 Ir1_1 2.222584 1_555
B4_1 Ir1_5 2.222584 1_555
B4_2 Ir12_6 2.132655 1_555
B4_2 Ir12_2 2.132655 1_555
B4_2 Ir4_2 2.209839 1_555
B4_2 Ir4_6 2.209839 1_555
B4_2 Ir1_2 2.222584 1_555
B4_2 Ir1_6 2.222584 1_555
B4_3 Ir12_7 2.132655 1_555
B4_3 Ir12_3 2.132655 1_555
B4_3 Ir4_3 2.209839 1_555
B4_3 Ir4_7 2.209839 1_555
B4_3 Ir1_3 2.222584 1_555
B4_3 Ir1_7 2.222584 1_555
B4_4 Ir12_0 2.132655 1_655
B4_4 Ir12_4 2.132655 1_555
B4_4 Ir4_0 2.209839 1_655
B4_4 Ir4_4 2.209839 1_555
B4_4 Ir1_0 2.222584 1_655
B4_4 Ir1_4 2.222584 1_555
B4_5 Ir12_1 2.132655 1_655
B4_5 Ir12_5 2.132655 1_555
B4_5 Ir4_1 2.209839 1_655
B4_5 Ir4_5 2.209839 1_555
B4_5 Ir1_1 2.222584 1_655
B4_5 Ir1_5 2.222584 1_555
B4_6 Ir12_2 2.132655 1_655
B4_6 Ir12_6 2.132655 1_555
B4_6 Ir4_2 2.209839 1_655
B4_6 Ir4_6 2.209839 1_555
B4_6 Ir1_2 2.222584 1_655
B4_6 Ir1_6 2.222584 1_555
B4_7 Ir12_3 2.132655 1_655
B4_7 Ir12_7 2.132655 1_555
B4_7 Ir4_3 2.209839 1_655
B4_7 Ir4_7 2.209839 1_555
B4_7 Ir1_3 2.222584 1_655
B4_7 Ir1_7 2.222584 1_555
B5_0 Ir13_0 2.132655 1_555
B5_0 Ir13_4 2.132655 1_555
B5_0 Ir5_0 2.209839 1_555
B5_0 Ir5_4 2.209839 1_555
B5_0 Ir1_0 2.222584 1_555
B5_0 Ir1_4 2.222584 1_555
B5_1 Ir13_1 2.132655 1_555
B5_1 Ir13_5 2.132655 1_555
B5_1 Ir5_5 2.209839 1_555
B5_1 Ir5_1 2.209839 1_555
B5_1 Ir1_1 2.222584 1_555
B5_1 Ir1_5 2.222584 1_555
B5_2 Ir13_2 2.132655 1_555
B5_2 Ir13_6 2.132655 1_555
B5_2 Ir5_2 2.209839 1_555
B5_2 Ir5_6 2.209839 1_555
B5_2 Ir1_6 2.222584 1_555
B5_2 Ir1_2 2.222584 1_555
B5_3 Ir13_3 2.132655 1_555
B5_3 Ir13_7 2.132655 1_555
B5_3 Ir5_3 2.209839 1_555
B5_3 Ir5_7 2.209839 1_555
B5_3 Ir1_3 2.222584 1_555
B5_3 Ir1_7 2.222584 1_555
B5_4 Ir13_0 2.132655 1_655
B5_4 Ir13_4 2.132655 1_555
B5_4 Ir5_0 2.209839 1_655
B5_4 Ir5_4 2.209839 1_555
B5_4 Ir1_0 2.222584 1_655
B5_4 Ir1_4 2.222584 1_555
B5_5 Ir13_1 2.132655 1_655
B5_5 Ir13_5 2.132655 1_555
B5_5 Ir5_1 2.209839 1_655
B5_5 Ir5_5 2.209839 1_555
B5_5 Ir1_1 2.222584 1_655
B5_5 Ir1_5 2.222584 1_555
B5_6 Ir13_2 2.132655 1_655
B5_6 Ir13_6 2.132655 1_555
B5_6 Ir5_2 2.209839 1_655
B5_6 Ir5_6 2.209839 1_555
B5_6 Ir1_2 2.222584 1_655
B5_6 Ir1_6 2.222584 1_555
B5_7 Ir13_3 2.132655 1_655
B5_7 Ir13_7 2.132655 1_555
B5_7 Ir5_3 2.209839 1_655
B5_7 Ir5_7 2.209839 1_555
B5_7 Ir1_3 2.222584 1_655
B5_7 Ir1_7 2.222584 1_555
Ir0_0 Zn9_2 2.743987 1_545
Ir0_0 Zn9_6 2.743987 1_445
Ir0_0 Zn8_4 2.743987 1_455
Ir0_0 Zn8_0 2.743987 1_555
Ir0_1 Zn9_3 2.743987 1_545
Ir0_1 Zn9_7 2.743987 1_445
Ir0_1 Zn8_5 2.743987 1_455
Ir0_1 Zn8_1 2.743987 1_555
Ir0_2 Zn8_6 2.743987 1_455
Ir0_2 Zn9_0 2.743987 1_555
Ir0_2 Zn9_4 2.743987 1_455
Ir0_2 Zn8_2 2.743987 1_555
Ir0_3 Zn9_5 2.743987 1_455
Ir0_3 Zn8_7 2.743987 1_455
Ir0_3 Zn8_3 2.743987 1_555
Ir0_3 Zn9_1 2.743987 1_555
Ir0_4 Zn9_2 2.743987 1_545
Ir0_4 Zn9_6 2.743987 1_545
Ir0_4 Zn8_0 2.743987 1_555
Ir0_4 Zn8_4 2.743987 1_555
Ir0_5 Zn9_3 2.743987 1_545
Ir0_5 Zn9_7 2.743987 1_545
Ir0_5 Zn8_1 2.743987 1_555
Ir0_5 Zn8_5 2.743987 1_555
Ir0_6 Zn9_0 2.743987 1_555
Ir0_6 Zn8_2 2.743987 1_555
Ir0_6 Zn9_4 2.743987 1_555
Ir0_6 Zn8_6 2.743987 1_555
Ir0_7 Zn8_3 2.743987 1_555
Ir0_7 Zn9_1 2.743987 1_555
Ir0_7 Zn9_5 2.743987 1_555
Ir0_7 Zn8_7 2.743987 1_555
Ir1_0 Zn7_4 2.743987 1_455
Ir1_0 Zn7_0 2.743987 1_555
Ir1_0 Zn6_4 2.743987 1_455
Ir1_0 Zn6_0 2.743987 1_555
Ir1_1 Zn7_5 2.743987 1_455
Ir1_1 Zn6_1 2.743987 1_555
Ir1_1 Zn6_5 2.743987 1_455
Ir1_1 Zn7_1 2.743987 1_555
Ir1_2 Zn6_6 2.743987 1_455
Ir1_2 Zn6_2 2.743987 1_555
Ir1_2 Zn7_6 2.743987 1_455
Ir1_2 Zn7_2 2.743987 1_555
Ir1_3 Zn6_3 2.743987 1_555
Ir1_3 Zn6_7 2.743987 1_455
Ir1_3 Zn7_7 2.743987 1_455
Ir1_3 Zn7_3 2.743987 1_555
Ir1_4 Zn7_0 2.743987 1_555
Ir1_4 Zn7_4 2.743987 1_555
Ir1_4 Zn6_0 2.743987 1_555
Ir1_4 Zn6_4 2.743987 1_555
Ir1_5 Zn6_1 2.743987 1_555
Ir1_5 Zn7_5 2.743987 1_555
Ir1_5 Zn7_1 2.743987 1_555
Ir1_5 Zn6_5 2.743987 1_555
Ir1_6 Zn6_2 2.743987 1_555
Ir1_6 Zn6_6 2.743987 1_555
Ir1_6 Zn7_2 2.743987 1_555
Ir1_6 Zn7_6 2.743987 1_555
Ir1_7 Zn6_3 2.743987 1_555
Ir1_7 Zn6_7 2.743987 1_555
Ir1_7 Zn7_3 2.743987 1_555
Ir1_7 Zn7_7 2.743987 1_555
Ir2_0 Zn3_4 2.708171 1_455
Ir2_0 Zn3_0 2.708171 1_555
Ir2_0 Zn5_4 2.708171 1_455
Ir2_0 Zn5_0 2.708171 1_555
Ir2_0 Zn7_4 2.751715 1_455
Ir2_0 Zn7_0 2.751715 1_555
Ir2_0 Zn9_4 2.751715 1_455
Ir2_0 Zn9_0 2.751715 1_555
Ir2_1 Zn3_5 2.708171 1_455
Ir2_1 Zn3_1 2.708171 1_555
Ir2_1 Zn5_5 2.708171 1_455
Ir2_1 Zn5_1 2.708171 1_555
Ir2_1 Zn7_5 2.751715 1_455
Ir2_1 Zn7_1 2.751715 1_555
Ir2_1 Zn9_5 2.751715 1_455
Ir2_1 Zn9_1 2.751715 1_555
Ir2_2 Zn3_6 2.708171 1_455
Ir2_2 Zn3_2 2.708171 1_555
Ir2_2 Zn5_6 2.708171 1_455
Ir2_2 Zn5_2 2.708171 1_555
Ir2_2 Zn7_6 2.751715 1_455
Ir2_2 Zn7_2 2.751715 1_555
Ir2_2 Zn9_6 2.751715 1_455
Ir2_2 Zn9_2 2.751715 1_555
Ir2_3 Zn3_7 2.708171 1_455
Ir2_3 Zn3_3 2.708171 1_555
Ir2_3 Zn5_7 2.708171 1_455
Ir2_3 Zn5_3 2.708171 1_555
Ir2_3 Zn7_7 2.751715 1_455
Ir2_3 Zn7_3 2.751715 1_555
Ir2_3 Zn9_7 2.751715 1_455
Ir2_3 Zn9_3 2.751715 1_555
Ir2_4 Zn3_0 2.708171 1_555
Ir2_4 Zn3_4 2.708171 1_555
Ir2_4 Zn5_4 2.708171 1_555
Ir2_4 Zn5_0 2.708171 1_555
Ir2_4 Zn7_0 2.751715 1_555
Ir2_4 Zn7_4 2.751715 1_555
Ir2_4 Zn9_0 2.751715 1_555
Ir2_4 Zn9_4 2.751715 1_555
Ir2_5 Zn3_1 2.708171 1_555
Ir2_5 Zn3_5 2.708171 1_555
Ir2_5 Zn5_1 2.708171 1_555
Ir2_5 Zn5_5 2.708171 1_555
Ir2_5 Zn7_1 2.751715 1_555
Ir2_5 Zn7_5 2.751715 1_555
Ir2_5 Zn9_1 2.751715 1_555
Ir2_5 Zn9_5 2.751715 1_555
Ir2_6 Zn3_2 2.708171 1_555
Ir2_6 Zn3_6 2.708171 1_555
Ir2_6 Zn5_2 2.708171 1_555
Ir2_6 Zn5_6 2.708171 1_555
Ir2_6 Zn7_2 2.751715 1_555
Ir2_6 Zn7_6 2.751715 1_555
Ir2_6 Zn9_6 2.751715 1_555
Ir2_6 Zn9_2 2.751715 1_555
Ir2_7 Zn3_3 2.708171 1_555
Ir2_7 Zn3_7 2.708171 1_555
Ir2_7 Zn5_3 2.708171 1_555
Ir2_7 Zn5_7 2.708171 1_555
Ir2_7 Zn7_3 2.751715 1_555
Ir2_7 Zn7_7 2.751715 1_555
Ir2_7 Zn9_7 2.751715 1_555
Ir2_7 Zn9_3 2.751715 1_555
Ir3_0 Zn4_4 2.708171 1_455
Ir3_0 Zn2_4 2.708171 1_455
Ir3_0 Zn2_0 2.708171 1_555
Ir3_0 Zn4_0 2.708171 1_555
Ir3_0 Zn8_4 2.751715 1_455
Ir3_0 Zn6_4 2.751715 1_455
Ir3_0 Zn8_0 2.751715 1_555
Ir3_0 Zn6_0 2.751715 1_555
Ir3_1 Zn4_5 2.708171 1_455
Ir3_1 Zn2_1 2.708171 1_555
Ir3_1 Zn4_1 2.708171 1_555
Ir3_1 Zn2_5 2.708171 1_455
Ir3_1 Zn6_5 2.751715 1_455
Ir3_1 Zn8_5 2.751715 1_455
Ir3_1 Zn6_1 2.751715 1_555
Ir3_1 Zn8_1 2.751715 1_555
Ir3_2 Zn2_6 2.708171 1_455
Ir3_2 Zn2_2 2.708171 1_555
Ir3_2 Zn4_6 2.708171 1_455
Ir3_2 Zn4_2 2.708171 1_555
Ir3_2 Zn6_6 2.751715 1_455
Ir3_2 Zn6_2 2.751715 1_555
Ir3_2 Zn8_2 2.751715 1_555
Ir3_2 Zn8_6 2.751715 1_455
Ir3_3 Zn2_7 2.708171 1_455
Ir3_3 Zn2_3 2.708171 1_555
Ir3_3 Zn4_7 2.708171 1_455
Ir3_3 Zn4_3 2.708171 1_555
Ir3_3 Zn6_7 2.751715 1_455
Ir3_3 Zn8_7 2.751715 1_455
Ir3_3 Zn8_3 2.751715 1_555
Ir3_3 Zn6_3 2.751715 1_555
Ir3_4 Zn2_0 2.708171 1_555
Ir3_4 Zn4_0 2.708171 1_555
Ir3_4 Zn2_4 2.708171 1_555
Ir3_4 Zn4_4 2.708171 1_555
Ir3_4 Zn8_0 2.751715 1_555
Ir3_4 Zn6_0 2.751715 1_555
Ir3_4 Zn6_4 2.751715 1_555
Ir3_4 Zn8_4 2.751715 1_555
Ir3_5 Zn2_1 2.708171 1_555
Ir3_5 Zn4_1 2.708171 1_555
Ir3_5 Zn2_5 2.708171 1_555
Ir3_5 Zn4_5 2.708171 1_555
Ir3_5 Zn6_1 2.751715 1_555
Ir3_5 Zn8_1 2.751715 1_555
Ir3_5 Zn6_5 2.751715 1_555
Ir3_5 Zn8_5 2.751715 1_555
Ir3_6 Zn2_2 2.708171 1_555
Ir3_6 Zn2_6 2.708171 1_555
Ir3_6 Zn4_2 2.708171 1_555
Ir3_6 Zn4_6 2.708171 1_555
Ir3_6 Zn6_2 2.751715 1_555
Ir3_6 Zn8_2 2.751715 1_555
Ir3_6 Zn6_6 2.751715 1_555
Ir3_6 Zn8_6 2.751715 1_555
Ir3_7 Zn2_3 2.708171 1_555
Ir3_7 Zn2_7 2.708171 1_555
Ir3_7 Zn4_3 2.708171 1_555
Ir3_7 Zn4_7 2.708171 1_555
Ir3_7 Zn8_3 2.751715 1_555
Ir3_7 Zn6_3 2.751715 1_555
Ir3_7 Zn6_7 2.751715 1_555
Ir3_7 Zn8_7 2.751715 1_555
Ir4_0 Zn7_4 2.857601 1_455
Ir4_0 Zn9_4 2.857601 1_455
Ir4_0 Zn7_0 2.857601 1_555
Ir4_0 Zn9_0 2.857601 1_555
Ir4_1 Zn7_5 2.857601 1_455
Ir4_1 Zn7_1 2.857601 1_555
Ir4_1 Zn9_5 2.857601 1_455
Ir4_1 Zn9_1 2.857601 1_555
Ir4_2 Zn7_6 2.857601 1_455
Ir4_2 Zn7_2 2.857601 1_555
Ir4_2 Zn9_2 2.857601 1_555
Ir4_2 Zn9_6 2.857601 1_455
Ir4_3 Zn7_7 2.857601 1_455
Ir4_3 Zn7_3 2.857601 1_555
Ir4_3 Zn9_7 2.857601 1_455
Ir4_3 Zn9_3 2.857601 1_555
Ir4_4 Zn7_0 2.857601 1_555
Ir4_4 Zn7_4 2.857601 1_555
Ir4_4 Zn9_0 2.857601 1_555
Ir4_4 Zn9_4 2.857601 1_555
Ir4_5 Zn7_1 2.857601 1_555
Ir4_5 Zn7_5 2.857601 1_555
Ir4_5 Zn9_1 2.857601 1_555
Ir4_5 Zn9_5 2.857601 1_555
Ir4_6 Zn7_2 2.857601 1_555
Ir4_6 Zn7_6 2.857601 1_555
Ir4_6 Zn9_2 2.857601 1_555
Ir4_6 Zn9_6 2.857601 1_555
Ir4_7 Zn7_3 2.857601 1_555
Ir4_7 Zn7_7 2.857601 1_555
Ir4_7 Zn9_3 2.857601 1_555
Ir4_7 Zn9_7 2.857601 1_555
Ir5_0 Zn6_4 2.857601 1_455
Ir5_0 Zn8_4 2.857601 1_455
Ir5_0 Zn8_0 2.857601 1_555
Ir5_0 Zn6_0 2.857601 1_555
Ir5_1 Zn6_5 2.857601 1_455
Ir5_1 Zn8_5 2.857601 1_455
Ir5_1 Zn8_1 2.857601 1_555
Ir5_1 Zn6_1 2.857601 1_555
Ir5_2 Zn6_6 2.857601 1_455
Ir5_2 Zn6_2 2.857601 1_555
Ir5_2 Zn8_2 2.857601 1_555
Ir5_2 Zn8_6 2.857601 1_455
Ir5_3 Zn8_7 2.857601 1_455
Ir5_3 Zn6_7 2.857601 1_455
Ir5_3 Zn8_3 2.857601 1_555
Ir5_3 Zn6_3 2.857601 1_555
Ir5_4 Zn8_0 2.857601 1_555
Ir5_4 Zn6_0 2.857601 1_555
Ir5_4 Zn8_4 2.857601 1_555
Ir5_4 Zn6_4 2.857601 1_555
Ir5_5 Zn6_5 2.857601 1_555
Ir5_5 Zn6_1 2.857601 1_555
Ir5_5 Zn8_1 2.857601 1_555
Ir5_5 Zn8_5 2.857601 1_555
Ir5_6 Zn6_2 2.857601 1_555
Ir5_6 Zn8_2 2.857601 1_555
Ir5_6 Zn6_6 2.857601 1_555
Ir5_6 Zn8_6 2.857601 1_555
Ir5_7 Zn8_3 2.857601 1_555
Ir5_7 Zn6_3 2.857601 1_555
Ir5_7 Zn6_7 2.857601 1_555
Ir5_7 Zn8_7 2.857601 1_555
Ir6_0 Zn5_5 2.637025 1_454
Ir6_0 Zn5_1 2.637025 1_554
Ir6_0 Zn4_2 2.664304 1_555
Ir6_0 Zn4_6 2.664304 1_455
Ir6_0 Zn0_4 2.676108 1_455
Ir6_0 Zn0_0 2.676108 1_555
Ir6_1 Zn5_4 2.637025 1_455
Ir6_1 Zn5_0 2.637025 1_555
Ir6_1 Zn4_7 2.664304 1_455
Ir6_1 Zn4_3 2.664304 1_555
Ir6_1 Zn0_5 2.676108 1_455
Ir6_1 Zn0_1 2.676108 1_555
Ir6_2 Zn5_3 2.637025 1_554
Ir6_2 Zn5_7 2.637025 1_454
Ir6_2 Zn4_4 2.664304 1_465
Ir6_2 Zn4_0 2.664304 1_565
Ir6_2 Zn0_2 2.676108 1_555
Ir6_2 Zn0_6 2.676108 1_455
Ir6_3 Zn5_6 2.637025 1_455
Ir6_3 Zn5_2 2.637025 1_555
Ir6_3 Zn4_1 2.664304 1_565
Ir6_3 Zn4_5 2.664304 1_465
Ir6_3 Zn0_7 2.676108 1_455
Ir6_3 Zn0_3 2.676108 1_555
Ir6_4 Zn5_1 2.637025 1_554
Ir6_4 Zn5_5 2.637025 1_554
Ir6_4 Zn4_2 2.664304 1_555
Ir6_4 Zn4_6 2.664304 1_555
Ir6_4 Zn0_0 2.676108 1_555
Ir6_4 Zn0_4 2.676108 1_555
Ir6_5 Zn5_0 2.637025 1_555
Ir6_5 Zn5_4 2.637025 1_555
Ir6_5 Zn4_3 2.664304 1_555
Ir6_5 Zn4_7 2.664304 1_555
Ir6_5 Zn0_1 2.676108 1_555
Ir6_5 Zn0_5 2.676108 1_555
Ir6_6 Zn5_3 2.637025 1_554
Ir6_6 Zn5_7 2.637025 1_554
Ir6_6 Zn4_0 2.664304 1_565
Ir6_6 Zn4_4 2.664304 1_565
Ir6_6 Zn0_2 2.676108 1_555
Ir6_6 Zn0_6 2.676108 1_555
Ir6_7 Zn5_2 2.637025 1_555
Ir6_7 Zn5_6 2.637025 1_555
Ir6_7 Zn4_1 2.664304 1_565
Ir6_7 Zn4_5 2.664304 1_565
Ir6_7 Zn0_3 2.676108 1_555
Ir6_7 Zn0_7 2.676108 1_555
Ir7_0 Zn4_5 2.637025 1_455
Ir7_0 Zn4_1 2.637025 1_555
Ir7_0 Zn5_6 2.664304 1_445
Ir7_0 Zn5_2 2.664304 1_545
Ir7_0 Zn1_4 2.676108 1_455
Ir7_0 Zn1_0 2.676108 1_555
Ir7_1 Zn4_4 2.637025 1_456
Ir7_1 Zn4_0 2.637025 1_556
Ir7_1 Zn5_7 2.664304 1_445
Ir7_1 Zn5_3 2.664304 1_545
Ir7_1 Zn1_5 2.676108 1_455
Ir7_1 Zn1_1 2.676108 1_555
Ir7_2 Zn4_7 2.637025 1_455
Ir7_2 Zn4_3 2.637025 1_555
Ir7_2 Zn5_4 2.664304 1_455
Ir7_2 Zn5_0 2.664304 1_555
Ir7_2 Zn1_6 2.676108 1_455
Ir7_2 Zn1_2 2.676108 1_555
Ir7_3 Zn4_6 2.637025 1_456
Ir7_3 Zn4_2 2.637025 1_556
Ir7_3 Zn5_5 2.664304 1_455
Ir7_3 Zn5_1 2.664304 1_555
Ir7_3 Zn1_7 2.676108 1_455
Ir7_3 Zn1_3 2.676108 1_555
Ir7_4 Zn4_1 2.637025 1_555
Ir7_4 Zn4_5 2.637025 1_555
Ir7_4 Zn5_2 2.664304 1_545
Ir7_4 Zn5_6 2.664304 1_545
Ir7_4 Zn1_0 2.676108 1_555
Ir7_4 Zn1_4 2.676108 1_555
Ir7_5 Zn4_0 2.637025 1_556
Ir7_5 Zn4_4 2.637025 1_556
Ir7_5 Zn5_3 2.664304 1_545
Ir7_5 Zn5_7 2.664304 1_545
Ir7_5 Zn1_1 2.676108 1_555
Ir7_5 Zn1_5 2.676108 1_555
Ir7_6 Zn4_3 2.637025 1_555
Ir7_6 Zn4_7 2.637025 1_555
Ir7_6 Zn5_0 2.664304 1_555
Ir7_6 Zn5_4 2.664304 1_555
Ir7_6 Zn1_2 2.676108 1_555
Ir7_6 Zn1_6 2.676108 1_555
Ir7_7 Zn4_2 2.637025 1_556
Ir7_7 Zn4_6 2.637025 1_556
Ir7_7 Zn5_1 2.664304 1_555
Ir7_7 Zn5_5 2.664304 1_555
Ir7_7 Zn1_3 2.676108 1_555
Ir7_7 Zn1_7 2.676108 1_555
Ir8_0 Zn3_5 2.637025 1_454
Ir8_0 Zn3_1 2.637025 1_554
Ir8_0 Zn2_4 2.664304 1_455
Ir8_0 Zn2_0 2.664304 1_555
Ir8_0 Zn0_4 2.676108 1_455
Ir8_0 Zn0_0 2.676108 1_555
Ir8_1 Zn3_4 2.637025 1_455
Ir8_1 Zn3_0 2.637025 1_555
Ir8_1 Zn2_5 2.664304 1_455
Ir8_1 Zn2_1 2.664304 1_555
Ir8_1 Zn0_5 2.676108 1_455
Ir8_1 Zn0_1 2.676108 1_555
Ir8_2 Zn3_7 2.637025 1_454
Ir8_2 Zn3_3 2.637025 1_554
Ir8_2 Zn2_2 2.664304 1_555
Ir8_2 Zn2_6 2.664304 1_455
Ir8_2 Zn0_6 2.676108 1_455
Ir8_2 Zn0_2 2.676108 1_555
Ir8_3 Zn3_6 2.637025 1_455
Ir8_3 Zn3_2 2.637025 1_555
Ir8_3 Zn2_7 2.664304 1_455
Ir8_3 Zn2_3 2.664304 1_555
Ir8_3 Zn0_7 2.676108 1_455
Ir8_3 Zn0_3 2.676108 1_555
Ir8_4 Zn3_1 2.637025 1_554
Ir8_4 Zn3_5 2.637025 1_554
Ir8_4 Zn2_0 2.664304 1_555
Ir8_4 Zn2_4 2.664304 1_555
Ir8_4 Zn0_0 2.676108 1_555
Ir8_4 Zn0_4 2.676108 1_555
Ir8_5 Zn3_0 2.637025 1_555
Ir8_5 Zn3_4 2.637025 1_555
Ir8_5 Zn2_1 2.664304 1_555
Ir8_5 Zn2_5 2.664304 1_555
Ir8_5 Zn0_1 2.676108 1_555
Ir8_5 Zn0_5 2.676108 1_555
Ir8_6 Zn3_3 2.637025 1_554
Ir8_6 Zn3_7 2.637025 1_554
Ir8_6 Zn2_2 2.664304 1_555
Ir8_6 Zn2_6 2.664304 1_555
Ir8_6 Zn0_2 2.676108 1_555
Ir8_6 Zn0_6 2.676108 1_555
Ir8_7 Zn3_2 2.637025 1_555
Ir8_7 Zn3_6 2.637025 1_555
Ir8_7 Zn2_3 2.664304 1_555
Ir8_7 Zn2_7 2.664304 1_555
Ir8_7 Zn0_7 2.676108 1_555
Ir8_7 Zn0_3 2.676108 1_555
Ir9_0 Zn2_5 2.637025 1_455
Ir9_0 Zn2_1 2.637025 1_555
Ir9_0 Zn3_4 2.664304 1_455
Ir9_0 Zn3_0 2.664304 1_555
Ir9_0 Zn1_4 2.676108 1_455
Ir9_0 Zn1_0 2.676108 1_555
Ir9_1 Zn2_4 2.637025 1_456
Ir9_1 Zn2_0 2.637025 1_556
Ir9_1 Zn3_5 2.664304 1_455
Ir9_1 Zn3_1 2.664304 1_555
Ir9_1 Zn1_5 2.676108 1_455
Ir9_1 Zn1_1 2.676108 1_555
Ir9_2 Zn2_7 2.637025 1_455
Ir9_2 Zn2_3 2.637025 1_555
Ir9_2 Zn3_6 2.664304 1_455
Ir9_2 Zn3_2 2.664304 1_555
Ir9_2 Zn1_6 2.676108 1_455
Ir9_2 Zn1_2 2.676108 1_555
Ir9_3 Zn2_6 2.637025 1_456
Ir9_3 Zn2_2 2.637025 1_556
Ir9_3 Zn3_7 2.664304 1_455
Ir9_3 Zn3_3 2.664304 1_555
Ir9_3 Zn1_7 2.676108 1_455
Ir9_3 Zn1_3 2.676108 1_555
Ir9_4 Zn2_1 2.637025 1_555
Ir9_4 Zn2_5 2.637025 1_555
Ir9_4 Zn3_0 2.664304 1_555
Ir9_4 Zn3_4 2.664304 1_555
Ir9_4 Zn1_0 2.676108 1_555
Ir9_4 Zn1_4 2.676108 1_555
Ir9_5 Zn2_0 2.637025 1_556
Ir9_5 Zn2_4 2.637025 1_556
Ir9_5 Zn3_1 2.664304 1_555
Ir9_5 Zn3_5 2.664304 1_555
Ir9_5 Zn1_1 2.676108 1_555
Ir9_5 Zn1_5 2.676108 1_555
Ir9_6 Zn2_7 2.637025 1_555
Ir9_6 Zn2_3 2.637025 1_555
Ir9_6 Zn3_2 2.664304 1_555
Ir9_6 Zn3_6 2.664304 1_555
Ir9_6 Zn1_2 2.676108 1_555
Ir9_6 Zn1_6 2.676108 1_555
Ir9_7 Zn2_2 2.637025 1_556
Ir9_7 Zn2_6 2.637025 1_556
Ir9_7 Zn3_3 2.664304 1_555
Ir9_7 Zn3_7 2.664304 1_555
Ir9_7 Zn1_3 2.676108 1_555
Ir9_7 Zn1_7 2.676108 1_555
Ir10_0 Zn0_4 2.593526 1_455
Ir10_0 Zn0_0 2.593526 1_555
Ir10_0 Zn4_6 2.632587 1_455
Ir10_0 Zn4_2 2.632587 1_555
Ir10_0 Zn8_2 2.877639 1_555
Ir10_0 Zn8_6 2.877639 1_455
Ir10_1 Zn0_5 2.593526 1_455
Ir10_1 Zn0_1 2.593526 1_555
Ir10_1 Zn4_7 2.632587 1_455
Ir10_1 Zn4_3 2.632587 1_555
Ir10_1 Zn8_7 2.877639 1_455
Ir10_1 Zn8_3 2.877639 1_555
Ir10_2 Zn0_6 2.593526 1_455
Ir10_2 Zn0_2 2.593526 1_555
Ir10_2 Zn4_0 2.632587 1_565
Ir10_2 Zn4_4 2.632587 1_465
Ir10_2 Zn8_4 2.877639 1_465
Ir10_2 Zn8_0 2.877639 1_565
Ir10_3 Zn0_7 2.593526 1_455
Ir10_3 Zn0_3 2.593526 1_555
Ir10_3 Zn4_5 2.632587 1_465
Ir10_3 Zn4_1 2.632587 1_565
Ir10_3 Zn8_5 2.877639 1_465
Ir10_3 Zn8_1 2.877639 1_565
Ir10_4 Zn0_0 2.593526 1_555
Ir10_4 Zn0_4 2.593526 1_555
Ir10_4 Zn4_2 2.632587 1_555
Ir10_4 Zn4_6 2.632587 1_555
Ir10_4 Zn8_2 2.877639 1_555
Ir10_4 Zn8_6 2.877639 1_555
Ir10_5 Zn0_1 2.593526 1_555
Ir10_5 Zn0_5 2.593526 1_555
Ir10_5 Zn4_3 2.632587 1_555
Ir10_5 Zn4_7 2.632587 1_555
Ir10_5 Zn8_3 2.877639 1_555
Ir10_5 Zn8_7 2.877639 1_555
Ir10_6 Zn0_2 2.593526 1_555
Ir10_6 Zn0_6 2.593526 1_555
Ir10_6 Zn4_0 2.632587 1_565
Ir10_6 Zn4_4 2.632587 1_565
Ir10_6 Zn8_0 2.877639 1_565
Ir10_6 Zn8_4 2.877639 1_565
Ir10_7 Zn0_3 2.593526 1_555
Ir10_7 Zn0_7 2.593526 1_555
Ir10_7 Zn4_1 2.632587 1_565
Ir10_7 Zn4_5 2.632587 1_565
Ir10_7 Zn8_1 2.877639 1_565
Ir10_7 Zn8_5 2.877639 1_565
Ir11_0 Zn1_4 2.593526 1_455
Ir11_0 Zn1_0 2.593526 1_555
Ir11_0 Zn5_6 2.632587 1_445
Ir11_0 Zn5_2 2.632587 1_545
Ir11_0 Zn9_6 2.877639 1_445
Ir11_0 Zn9_2 2.877639 1_545
Ir11_1 Zn1_5 2.593526 1_455
Ir11_1 Zn1_1 2.593526 1_555
Ir11_1 Zn5_7 2.632587 1_445
Ir11_1 Zn5_3 2.632587 1_545
Ir11_1 Zn9_7 2.877639 1_445
Ir11_1 Zn9_3 2.877639 1_545
Ir11_2 Zn1_6 2.593526 1_455
Ir11_2 Zn1_2 2.593526 1_555
Ir11_2 Zn5_4 2.632587 1_455
Ir11_2 Zn5_0 2.632587 1_555
Ir11_2 Zn9_4 2.877639 1_455
Ir11_2 Zn9_0 2.877639 1_555
Ir11_3 Zn1_7 2.593526 1_455
Ir11_3 Zn1_3 2.593526 1_555
Ir11_3 Zn5_5 2.632587 1_455
Ir11_3 Zn5_1 2.632587 1_555
Ir11_3 Zn9_1 2.877639 1_555
Ir11_3 Zn9_5 2.877639 1_455
Ir11_4 Zn1_0 2.593526 1_555
Ir11_4 Zn1_4 2.593526 1_555
Ir11_4 Zn5_2 2.632587 1_545
Ir11_4 Zn5_6 2.632587 1_545
Ir11_4 Zn9_6 2.877639 1_545
Ir11_4 Zn9_2 2.877639 1_545
Ir11_5 Zn1_1 2.593526 1_555
Ir11_5 Zn1_5 2.593526 1_555
Ir11_5 Zn5_3 2.632587 1_545
Ir11_5 Zn5_7 2.632587 1_545
Ir11_5 Zn9_3 2.877639 1_545
Ir11_5 Zn9_7 2.877639 1_545
Ir11_6 Zn1_2 2.593526 1_555
Ir11_6 Zn1_6 2.593526 1_555
Ir11_6 Zn5_0 2.632587 1_555
Ir11_6 Zn5_4 2.632587 1_555
Ir11_6 Zn9_0 2.877639 1_555
Ir11_6 Zn9_4 2.877639 1_555
Ir11_7 Zn1_3 2.593526 1_555
Ir11_7 Zn1_7 2.593526 1_555
Ir11_7 Zn5_1 2.632587 1_555
Ir11_7 Zn5_5 2.632587 1_555
Ir11_7 Zn9_1 2.877639 1_555
Ir11_7 Zn9_5 2.877639 1_555
Ir12_0 Zn0_4 2.593526 1_455
Ir12_0 Zn0_0 2.593526 1_555
Ir12_0 Zn2_4 2.632587 1_455
Ir12_0 Zn2_0 2.632587 1_555
Ir12_0 Zn6_4 2.877639 1_455
Ir12_0 Zn6_0 2.877639 1_555
Ir12_1 Zn0_5 2.593526 1_455
Ir12_1 Zn0_1 2.593526 1_555
Ir12_1 Zn2_5 2.632587 1_455
Ir12_1 Zn2_1 2.632587 1_555
Ir12_1 Zn6_5 2.877639 1_455
Ir12_1 Zn6_1 2.877639 1_555
Ir12_2 Zn0_6 2.593526 1_455
Ir12_2 Zn0_2 2.593526 1_555
Ir12_2 Zn2_2 2.632587 1_555
Ir12_2 Zn2_6 2.632587 1_455
Ir12_2 Zn6_6 2.877639 1_455
Ir12_2 Zn6_2 2.877639 1_555
Ir12_3 Zn0_7 2.593526 1_455
Ir12_3 Zn0_3 2.593526 1_555
Ir12_3 Zn2_7 2.632587 1_455
Ir12_3 Zn2_3 2.632587 1_555
Ir12_3 Zn6_7 2.877639 1_455
Ir12_3 Zn6_3 2.877639 1_555
Ir12_4 Zn0_4 2.593526 1_555
Ir12_4 Zn0_0 2.593526 1_555
Ir12_4 Zn2_0 2.632587 1_555
Ir12_4 Zn2_4 2.632587 1_555
Ir12_4 Zn6_0 2.877639 1_555
Ir12_4 Zn6_4 2.877639 1_555
Ir12_5 Zn0_1 2.593526 1_555
Ir12_5 Zn0_5 2.593526 1_555
Ir12_5 Zn2_1 2.632587 1_555
Ir12_5 Zn2_5 2.632587 1_555
Ir12_5 Zn6_1 2.877639 1_555
Ir12_5 Zn6_5 2.877639 1_555
Ir12_6 Zn0_2 2.593526 1_555
Ir12_6 Zn0_6 2.593526 1_555
Ir12_6 Zn2_2 2.632587 1_555
Ir12_6 Zn2_6 2.632587 1_555
Ir12_6 Zn6_2 2.877639 1_555
Ir12_6 Zn6_6 2.877639 1_555
Ir12_7 Zn0_3 2.593526 1_555
Ir12_7 Zn0_7 2.593526 1_555
Ir12_7 Zn2_3 2.632587 1_555
Ir12_7 Zn2_7 2.632587 1_555
Ir12_7 Zn6_3 2.877639 1_555
Ir12_7 Zn6_7 2.877639 1_555
Ir13_0 Zn1_4 2.593526 1_455
Ir13_0 Zn1_0 2.593526 1_555
Ir13_0 Zn3_4 2.632587 1_455
Ir13_0 Zn3_0 2.632587 1_555
Ir13_0 Zn7_4 2.877639 1_455
Ir13_0 Zn7_0 2.877639 1_555
Ir13_1 Zn1_5 2.593526 1_455
Ir13_1 Zn1_1 2.593526 1_555
Ir13_1 Zn3_5 2.632587 1_455
Ir13_1 Zn3_1 2.632587 1_555
Ir13_1 Zn7_5 2.877639 1_455
Ir13_1 Zn7_1 2.877639 1_555
Ir13_2 Zn1_6 2.593526 1_455
Ir13_2 Zn1_2 2.593526 1_555
Ir13_2 Zn3_6 2.632587 1_455
Ir13_2 Zn3_2 2.632587 1_555
Ir13_2 Zn7_6 2.877639 1_455
Ir13_2 Zn7_2 2.877639 1_555
Ir13_3 Zn1_7 2.593526 1_455
Ir13_3 Zn1_3 2.593526 1_555
Ir13_3 Zn3_7 2.632587 1_455
Ir13_3 Zn3_3 2.632587 1_555
Ir13_3 Zn7_3 2.877639 1_555
Ir13_3 Zn7_7 2.877639 1_455
Ir13_4 Zn1_0 2.593526 1_555
Ir13_4 Zn1_4 2.593526 1_555
Ir13_4 Zn3_0 2.632587 1_555
Ir13_4 Zn3_4 2.632587 1_555
Ir13_4 Zn7_0 2.877639 1_555
Ir13_4 Zn7_4 2.877639 1_555
Ir13_5 Zn1_1 2.593526 1_555
Ir13_5 Zn1_5 2.593526 1_555
Ir13_5 Zn3_1 2.632587 1_555
Ir13_5 Zn3_5 2.632587 1_555
Ir13_5 Zn7_1 2.877639 1_555
Ir13_5 Zn7_5 2.877639 1_555
Ir13_6 Zn1_2 2.593526 1_555
Ir13_6 Zn1_6 2.593526 1_555
Ir13_6 Zn3_2 2.632587 1_555
Ir13_6 Zn3_6 2.632587 1_555
Ir13_6 Zn7_2 2.877639 1_555
Ir13_6 Zn7_6 2.877639 1_555
Ir13_7 Zn1_3 2.593526 1_555
Ir13_7 Zn1_7 2.593526 1_555
Ir13_7 Zn3_3 2.632587 1_555
Ir13_7 Zn3_7 2.632587 1_555
Ir13_7 Zn7_3 2.877639 1_555
Ir13_7 Zn7_7 2.877639 1_555
