# generated using pymatgen
data_Tb17Mg11Ni8
_symmetry_space_group_name_H-M   'P 1'
_cell_length_a   7.19235348
_cell_length_b   21.81773456
_cell_length_c   43.70641522
_cell_angle_alpha   90.00000000
_cell_angle_beta   90.00000000
_cell_angle_gamma   90.00000000
_symmetry_Int_Tables_number   1
_chemical_formula_structural   Tb17Mg11Ni8
_chemical_formula_sum   'Tb136 Mg88 Ni64'
_cell_volume   6858.44822399
_cell_formula_units_Z   8
loop_
 _symmetry_equiv_pos_site_id
 _symmetry_equiv_pos_as_xyz
  1  'x, y, z'
loop_
 _atom_site_type_symbol
 _atom_site_label
 _atom_site_symmetry_multiplicity
 _atom_site_fract_x
 _atom_site_fract_y
 _atom_site_fract_z
 _atom_site_occupancy
  Tb  Tb0_0  1  0.25000000  0.15885452  0.08105806  1
  Tb  Tb0_1  1  0.25000000  0.15885452  0.58105805  1
  Tb  Tb0_2  1  0.25000000  0.65885452  0.08105806  1
  Tb  Tb0_3  1  0.25000000  0.65885452  0.58105805  1
  Tb  Tb0_4  1  0.75000000  0.15885452  0.08105806  1
  Tb  Tb0_5  1  0.75000000  0.15885452  0.58105805  1
  Tb  Tb0_6  1  0.75000000  0.65885452  0.08105806  1
  Tb  Tb0_7  1  0.75000000  0.65885452  0.58105805  1
  Tb  Tb1_0  1  0.25000000  0.16327609  0.33011575  1
  Tb  Tb1_1  1  0.25000000  0.16327609  0.83011574  1
  Tb  Tb1_2  1  0.25000000  0.66327609  0.33011575  1
  Tb  Tb1_3  1  0.25000000  0.66327609  0.83011574  1
  Tb  Tb1_4  1  0.75000000  0.16327609  0.33011575  1
  Tb  Tb1_5  1  0.75000000  0.16327609  0.83011574  1
  Tb  Tb1_6  1  0.75000000  0.66327609  0.33011575  1
  Tb  Tb1_7  1  0.75000000  0.66327609  0.83011574  1
  Tb  Tb2_0  1  0.25000000  0.33672391  0.16988426  1
  Tb  Tb2_1  1  0.25000000  0.33672391  0.66988426  1
  Tb  Tb2_2  1  0.25000000  0.83672391  0.16988426  1
  Tb  Tb2_3  1  0.25000000  0.83672391  0.66988426  1
  Tb  Tb2_4  1  0.75000000  0.33672391  0.16988426  1
  Tb  Tb2_5  1  0.75000000  0.33672391  0.66988426  1
  Tb  Tb2_6  1  0.75000000  0.83672391  0.16988426  1
  Tb  Tb2_7  1  0.75000000  0.83672391  0.66988426  1
  Tb  Tb3_0  1  0.25000000  0.34114548  0.41894194  1
  Tb  Tb3_1  1  0.25000000  0.34114548  0.91894194  1
  Tb  Tb3_2  1  0.25000000  0.84114548  0.41894194  1
  Tb  Tb3_3  1  0.25000000  0.84114548  0.91894194  1
  Tb  Tb3_4  1  0.75000000  0.34114548  0.41894194  1
  Tb  Tb3_5  1  0.75000000  0.34114548  0.91894194  1
  Tb  Tb3_6  1  0.75000000  0.84114548  0.41894194  1
  Tb  Tb3_7  1  0.75000000  0.84114548  0.91894194  1
  Tb  Tb4_0  1  0.25000000  0.34114548  0.08105806  1
  Tb  Tb4_1  1  0.25000000  0.34114548  0.58105805  1
  Tb  Tb4_2  1  0.25000000  0.84114548  0.08105806  1
  Tb  Tb4_3  1  0.25000000  0.84114548  0.58105805  1
  Tb  Tb4_4  1  0.75000000  0.34114548  0.08105806  1
  Tb  Tb4_5  1  0.75000000  0.34114548  0.58105805  1
  Tb  Tb4_6  1  0.75000000  0.84114548  0.08105806  1
  Tb  Tb4_7  1  0.75000000  0.84114548  0.58105805  1
  Tb  Tb5_0  1  0.25000000  0.33672391  0.33011575  1
  Tb  Tb5_1  1  0.25000000  0.33672391  0.83011574  1
  Tb  Tb5_2  1  0.25000000  0.83672391  0.33011575  1
  Tb  Tb5_3  1  0.25000000  0.83672391  0.83011574  1
  Tb  Tb5_4  1  0.75000000  0.33672391  0.33011575  1
  Tb  Tb5_5  1  0.75000000  0.33672391  0.83011574  1
  Tb  Tb5_6  1  0.75000000  0.83672391  0.33011575  1
  Tb  Tb5_7  1  0.75000000  0.83672391  0.83011574  1
  Tb  Tb6_0  1  0.25000000  0.16327609  0.16988426  1
  Tb  Tb6_1  1  0.25000000  0.16327609  0.66988426  1
  Tb  Tb6_2  1  0.25000000  0.66327609  0.16988426  1
  Tb  Tb6_3  1  0.25000000  0.66327609  0.66988426  1
  Tb  Tb6_4  1  0.75000000  0.16327609  0.16988426  1
  Tb  Tb6_5  1  0.75000000  0.16327609  0.66988426  1
  Tb  Tb6_6  1  0.75000000  0.66327609  0.16988426  1
  Tb  Tb6_7  1  0.75000000  0.66327609  0.66988426  1
  Tb  Tb7_0  1  0.25000000  0.15885452  0.41894194  1
  Tb  Tb7_1  1  0.25000000  0.15885452  0.91894194  1
  Tb  Tb7_2  1  0.25000000  0.65885452  0.41894194  1
  Tb  Tb7_3  1  0.25000000  0.65885452  0.91894194  1
  Tb  Tb7_4  1  0.75000000  0.15885452  0.41894194  1
  Tb  Tb7_5  1  0.75000000  0.15885452  0.91894194  1
  Tb  Tb7_6  1  0.75000000  0.65885452  0.41894194  1
  Tb  Tb7_7  1  0.75000000  0.65885452  0.91894194  1
  Tb  Tb8_0  1  0.25000000  0.00000000  0.06935296  1
  Tb  Tb8_1  1  0.25000000  0.00000000  0.56935295  1
  Tb  Tb8_2  1  0.25000000  0.50000000  0.06935296  1
  Tb  Tb8_3  1  0.25000000  0.50000000  0.56935295  1
  Tb  Tb8_4  1  0.75000000  0.00000000  0.06935296  1
  Tb  Tb8_5  1  0.75000000  0.00000000  0.56935295  1
  Tb  Tb8_6  1  0.75000000  0.50000000  0.06935296  1
  Tb  Tb8_7  1  0.75000000  0.50000000  0.56935295  1
  Tb  Tb9_0  1  0.25000000  0.00000000  0.31401695  1
  Tb  Tb9_1  1  0.25000000  0.00000000  0.81401695  1
  Tb  Tb9_2  1  0.25000000  0.50000000  0.31401695  1
  Tb  Tb9_3  1  0.25000000  0.50000000  0.81401695  1
  Tb  Tb9_4  1  0.75000000  0.00000000  0.31401695  1
  Tb  Tb9_5  1  0.75000000  0.00000000  0.81401695  1
  Tb  Tb9_6  1  0.75000000  0.50000000  0.31401695  1
  Tb  Tb9_7  1  0.75000000  0.50000000  0.81401695  1
  Tb  Tb10_0  1  0.25000000  0.00000000  0.18598305  1
  Tb  Tb10_1  1  0.25000000  0.00000000  0.68598305  1
  Tb  Tb10_2  1  0.25000000  0.50000000  0.18598305  1
  Tb  Tb10_3  1  0.25000000  0.50000000  0.68598305  1
  Tb  Tb10_4  1  0.75000000  0.00000000  0.18598305  1
  Tb  Tb10_5  1  0.75000000  0.00000000  0.68598305  1
  Tb  Tb10_6  1  0.75000000  0.50000000  0.18598305  1
  Tb  Tb10_7  1  0.75000000  0.50000000  0.68598305  1
  Tb  Tb11_0  1  0.25000000  0.00000000  0.43064705  1
  Tb  Tb11_1  1  0.25000000  0.00000000  0.93064705  1
  Tb  Tb11_2  1  0.25000000  0.50000000  0.43064705  1
  Tb  Tb11_3  1  0.25000000  0.50000000  0.93064705  1
  Tb  Tb11_4  1  0.75000000  0.00000000  0.43064705  1
  Tb  Tb11_5  1  0.75000000  0.00000000  0.93064705  1
  Tb  Tb11_6  1  0.75000000  0.50000000  0.43064705  1
  Tb  Tb11_7  1  0.75000000  0.50000000  0.93064705  1
  Tb  Tb12_0  1  0.25000000  0.36179755  0.00000000  1
  Tb  Tb12_1  1  0.25000000  0.36179755  0.50000000  1
  Tb  Tb12_2  1  0.25000000  0.86179755  0.00000000  1
  Tb  Tb12_3  1  0.25000000  0.86179755  0.50000000  1
  Tb  Tb12_4  1  0.75000000  0.36179755  0.00000000  1
  Tb  Tb12_5  1  0.75000000  0.36179755  0.50000000  1
  Tb  Tb12_6  1  0.75000000  0.86179755  0.00000000  1
  Tb  Tb12_7  1  0.75000000  0.86179755  0.50000000  1
  Tb  Tb13_0  1  0.25000000  0.37100079  0.25000000  1
  Tb  Tb13_1  1  0.25000000  0.37100079  0.75000000  1
  Tb  Tb13_2  1  0.25000000  0.87100079  0.25000000  1
  Tb  Tb13_3  1  0.25000000  0.87100079  0.75000000  1
  Tb  Tb13_4  1  0.75000000  0.37100079  0.25000000  1
  Tb  Tb13_5  1  0.75000000  0.37100079  0.75000000  1
  Tb  Tb13_6  1  0.75000000  0.87100079  0.25000000  1
  Tb  Tb13_7  1  0.75000000  0.87100079  0.75000000  1
  Tb  Tb14_0  1  0.25000000  0.13820245  0.00000000  1
  Tb  Tb14_1  1  0.25000000  0.13820245  0.50000000  1
  Tb  Tb14_2  1  0.25000000  0.63820245  0.00000000  1
  Tb  Tb14_3  1  0.25000000  0.63820245  0.50000000  1
  Tb  Tb14_4  1  0.75000000  0.13820245  0.00000000  1
  Tb  Tb14_5  1  0.75000000  0.13820245  0.50000000  1
  Tb  Tb14_6  1  0.75000000  0.63820245  0.00000000  1
  Tb  Tb14_7  1  0.75000000  0.63820245  0.50000000  1
  Tb  Tb15_0  1  0.25000000  0.12899921  0.25000000  1
  Tb  Tb15_1  1  0.25000000  0.12899921  0.75000000  1
  Tb  Tb15_2  1  0.25000000  0.62899921  0.25000000  1
  Tb  Tb15_3  1  0.25000000  0.62899921  0.75000000  1
  Tb  Tb15_4  1  0.75000000  0.12899921  0.25000000  1
  Tb  Tb15_5  1  0.75000000  0.12899921  0.75000000  1
  Tb  Tb15_6  1  0.75000000  0.62899921  0.25000000  1
  Tb  Tb15_7  1  0.75000000  0.62899921  0.75000000  1
  Tb  Tb16_0  1  0.00000000  0.00000000  0.00000000  1
  Tb  Tb16_1  1  0.00000000  0.00000000  0.50000000  1
  Tb  Tb16_2  1  0.00000000  0.50000000  0.00000000  1
  Tb  Tb16_3  1  0.00000000  0.50000000  0.50000000  1
  Tb  Tb16_4  1  0.50000000  0.00000000  0.00000000  1
  Tb  Tb16_5  1  0.50000000  0.00000000  0.50000000  1
  Tb  Tb16_6  1  0.50000000  0.50000000  0.00000000  1
  Tb  Tb16_7  1  0.50000000  0.50000000  0.50000000  1
  Mg  Mg0_0  1  0.00000000  0.25000000  0.03644196  1
  Mg  Mg0_1  1  0.00000000  0.25000000  0.53644196  1
  Mg  Mg0_2  1  0.00000000  0.75000000  0.03644196  1
  Mg  Mg0_3  1  0.00000000  0.75000000  0.53644196  1
  Mg  Mg0_4  1  0.50000000  0.25000000  0.03644196  1
  Mg  Mg0_5  1  0.50000000  0.25000000  0.53644196  1
  Mg  Mg0_6  1  0.50000000  0.75000000  0.03644196  1
  Mg  Mg0_7  1  0.50000000  0.75000000  0.53644196  1
  Mg  Mg1_0  1  0.00000000  0.25000000  0.28412411  1
  Mg  Mg1_1  1  0.00000000  0.25000000  0.78412411  1
  Mg  Mg1_2  1  0.00000000  0.75000000  0.28412411  1
  Mg  Mg1_3  1  0.00000000  0.75000000  0.78412411  1
  Mg  Mg1_4  1  0.50000000  0.25000000  0.28412411  1
  Mg  Mg1_5  1  0.50000000  0.25000000  0.78412411  1
  Mg  Mg1_6  1  0.50000000  0.75000000  0.28412411  1
  Mg  Mg1_7  1  0.50000000  0.75000000  0.78412411  1
  Mg  Mg2_0  1  0.00000000  0.25000000  0.21587589  1
  Mg  Mg2_1  1  0.00000000  0.25000000  0.71587589  1
  Mg  Mg2_2  1  0.00000000  0.75000000  0.21587589  1
  Mg  Mg2_3  1  0.00000000  0.75000000  0.71587589  1
  Mg  Mg2_4  1  0.50000000  0.25000000  0.21587589  1
  Mg  Mg2_5  1  0.50000000  0.25000000  0.71587589  1
  Mg  Mg2_6  1  0.50000000  0.75000000  0.21587589  1
  Mg  Mg2_7  1  0.50000000  0.75000000  0.71587589  1
  Mg  Mg3_0  1  0.00000000  0.25000000  0.46355803  1
  Mg  Mg3_1  1  0.00000000  0.25000000  0.96355803  1
  Mg  Mg3_2  1  0.00000000  0.75000000  0.46355803  1
  Mg  Mg3_3  1  0.00000000  0.75000000  0.96355803  1
  Mg  Mg3_4  1  0.50000000  0.25000000  0.46355803  1
  Mg  Mg3_5  1  0.50000000  0.25000000  0.96355803  1
  Mg  Mg3_6  1  0.50000000  0.75000000  0.46355803  1
  Mg  Mg3_7  1  0.50000000  0.75000000  0.96355803  1
  Mg  Mg4_0  1  0.00000000  0.42967588  0.12769925  1
  Mg  Mg4_1  1  0.00000000  0.42967588  0.62769925  1
  Mg  Mg4_2  1  0.00000000  0.92967587  0.12769925  1
  Mg  Mg4_3  1  0.00000000  0.92967587  0.62769925  1
  Mg  Mg4_4  1  0.50000000  0.42967588  0.12769925  1
  Mg  Mg4_5  1  0.50000000  0.42967588  0.62769925  1
  Mg  Mg4_6  1  0.50000000  0.92967587  0.12769925  1
  Mg  Mg4_7  1  0.50000000  0.92967587  0.62769925  1
  Mg  Mg5_0  1  0.00000000  0.42967588  0.37230075  1
  Mg  Mg5_1  1  0.00000000  0.42967588  0.87230075  1
  Mg  Mg5_2  1  0.00000000  0.92967587  0.37230075  1
  Mg  Mg5_3  1  0.00000000  0.92967587  0.87230075  1
  Mg  Mg5_4  1  0.50000000  0.42967588  0.37230075  1
  Mg  Mg5_5  1  0.50000000  0.42967588  0.87230075  1
  Mg  Mg5_6  1  0.50000000  0.92967587  0.37230075  1
  Mg  Mg5_7  1  0.50000000  0.92967587  0.87230075  1
  Mg  Mg6_0  1  0.00000000  0.07032413  0.12769925  1
  Mg  Mg6_1  1  0.00000000  0.07032413  0.62769925  1
  Mg  Mg6_2  1  0.00000000  0.57032413  0.12769925  1
  Mg  Mg6_3  1  0.00000000  0.57032413  0.62769925  1
  Mg  Mg6_4  1  0.50000000  0.07032413  0.12769925  1
  Mg  Mg6_5  1  0.50000000  0.07032413  0.62769925  1
  Mg  Mg6_6  1  0.50000000  0.57032413  0.12769925  1
  Mg  Mg6_7  1  0.50000000  0.57032413  0.62769925  1
  Mg  Mg7_0  1  0.00000000  0.07032413  0.37230075  1
  Mg  Mg7_1  1  0.00000000  0.07032413  0.87230075  1
  Mg  Mg7_2  1  0.00000000  0.57032413  0.37230075  1
  Mg  Mg7_3  1  0.00000000  0.57032413  0.87230075  1
  Mg  Mg7_4  1  0.50000000  0.07032413  0.37230075  1
  Mg  Mg7_5  1  0.50000000  0.07032413  0.87230075  1
  Mg  Mg7_6  1  0.50000000  0.57032413  0.37230075  1
  Mg  Mg7_7  1  0.50000000  0.57032413  0.87230075  1
  Mg  Mg8_0  1  0.00000000  0.25000000  0.12464115  1
  Mg  Mg8_1  1  0.00000000  0.25000000  0.62464115  1
  Mg  Mg8_2  1  0.00000000  0.75000000  0.12464115  1
  Mg  Mg8_3  1  0.00000000  0.75000000  0.62464115  1
  Mg  Mg8_4  1  0.50000000  0.25000000  0.12464115  1
  Mg  Mg8_5  1  0.50000000  0.25000000  0.62464115  1
  Mg  Mg8_6  1  0.50000000  0.75000000  0.12464115  1
  Mg  Mg8_7  1  0.50000000  0.75000000  0.62464115  1
  Mg  Mg9_0  1  0.00000000  0.25000000  0.37535885  1
  Mg  Mg9_1  1  0.00000000  0.25000000  0.87535885  1
  Mg  Mg9_2  1  0.00000000  0.75000000  0.37535885  1
  Mg  Mg9_3  1  0.00000000  0.75000000  0.87535885  1
  Mg  Mg9_4  1  0.50000000  0.25000000  0.37535885  1
  Mg  Mg9_5  1  0.50000000  0.25000000  0.87535885  1
  Mg  Mg9_6  1  0.50000000  0.75000000  0.37535885  1
  Mg  Mg9_7  1  0.50000000  0.75000000  0.87535885  1
  Mg  Mg10_0  1  0.00000000  0.00000000  0.25000000  1
  Mg  Mg10_1  1  0.00000000  0.00000000  0.75000000  1
  Mg  Mg10_2  1  0.00000000  0.50000000  0.25000000  1
  Mg  Mg10_3  1  0.00000000  0.50000000  0.75000000  1
  Mg  Mg10_4  1  0.50000000  0.00000000  0.25000000  1
  Mg  Mg10_5  1  0.50000000  0.00000000  0.75000000  1
  Mg  Mg10_6  1  0.50000000  0.50000000  0.25000000  1
  Mg  Mg10_7  1  0.50000000  0.50000000  0.75000000  1
  Ni  Ni0_0  1  0.00000000  0.09438249  0.04707968  1
  Ni  Ni0_1  1  0.00000000  0.09438249  0.54707967  1
  Ni  Ni0_2  1  0.00000000  0.59438249  0.04707968  1
  Ni  Ni0_3  1  0.00000000  0.59438249  0.54707967  1
  Ni  Ni0_4  1  0.50000000  0.09438249  0.04707968  1
  Ni  Ni0_5  1  0.50000000  0.09438249  0.54707967  1
  Ni  Ni0_6  1  0.50000000  0.59438249  0.04707968  1
  Ni  Ni0_7  1  0.50000000  0.59438249  0.54707967  1
  Ni  Ni1_0  1  0.00000000  0.09589612  0.29802392  1
  Ni  Ni1_1  1  0.00000000  0.09589612  0.79802392  1
  Ni  Ni1_2  1  0.00000000  0.59589612  0.29802392  1
  Ni  Ni1_3  1  0.00000000  0.59589612  0.79802392  1
  Ni  Ni1_4  1  0.50000000  0.09589612  0.29802392  1
  Ni  Ni1_5  1  0.50000000  0.09589612  0.79802392  1
  Ni  Ni1_6  1  0.50000000  0.59589612  0.29802392  1
  Ni  Ni1_7  1  0.50000000  0.59589612  0.79802392  1
  Ni  Ni2_0  1  0.00000000  0.40410388  0.20197608  1
  Ni  Ni2_1  1  0.00000000  0.40410388  0.70197608  1
  Ni  Ni2_2  1  0.00000000  0.90410388  0.20197608  1
  Ni  Ni2_3  1  0.00000000  0.90410388  0.70197608  1
  Ni  Ni2_4  1  0.50000000  0.40410388  0.20197608  1
  Ni  Ni2_5  1  0.50000000  0.40410388  0.70197608  1
  Ni  Ni2_6  1  0.50000000  0.90410388  0.20197608  1
  Ni  Ni2_7  1  0.50000000  0.90410388  0.70197608  1
  Ni  Ni3_0  1  0.00000000  0.40561751  0.45292033  1
  Ni  Ni3_1  1  0.00000000  0.40561751  0.95292033  1
  Ni  Ni3_2  1  0.00000000  0.90561751  0.45292033  1
  Ni  Ni3_3  1  0.00000000  0.90561751  0.95292033  1
  Ni  Ni3_4  1  0.50000000  0.40561751  0.45292033  1
  Ni  Ni3_5  1  0.50000000  0.40561751  0.95292033  1
  Ni  Ni3_6  1  0.50000000  0.90561751  0.45292033  1
  Ni  Ni3_7  1  0.50000000  0.90561751  0.95292033  1
  Ni  Ni4_0  1  0.00000000  0.40561751  0.04707968  1
  Ni  Ni4_1  1  0.00000000  0.40561751  0.54707967  1
  Ni  Ni4_2  1  0.00000000  0.90561751  0.04707968  1
  Ni  Ni4_3  1  0.00000000  0.90561751  0.54707967  1
  Ni  Ni4_4  1  0.50000000  0.40561751  0.04707968  1
  Ni  Ni4_5  1  0.50000000  0.40561751  0.54707967  1
  Ni  Ni4_6  1  0.50000000  0.90561751  0.04707968  1
  Ni  Ni4_7  1  0.50000000  0.90561751  0.54707967  1
  Ni  Ni5_0  1  0.00000000  0.40410388  0.29802392  1
  Ni  Ni5_1  1  0.00000000  0.40410388  0.79802392  1
  Ni  Ni5_2  1  0.00000000  0.90410388  0.29802392  1
  Ni  Ni5_3  1  0.00000000  0.90410388  0.79802392  1
  Ni  Ni5_4  1  0.50000000  0.40410388  0.29802392  1
  Ni  Ni5_5  1  0.50000000  0.40410388  0.79802392  1
  Ni  Ni5_6  1  0.50000000  0.90410388  0.29802392  1
  Ni  Ni5_7  1  0.50000000  0.90410388  0.79802392  1
  Ni  Ni6_0  1  0.00000000  0.09589612  0.20197608  1
  Ni  Ni6_1  1  0.00000000  0.09589612  0.70197608  1
  Ni  Ni6_2  1  0.00000000  0.59589612  0.20197608  1
  Ni  Ni6_3  1  0.00000000  0.59589612  0.70197608  1
  Ni  Ni6_4  1  0.50000000  0.09589612  0.20197608  1
  Ni  Ni6_5  1  0.50000000  0.09589612  0.70197608  1
  Ni  Ni6_6  1  0.50000000  0.59589612  0.20197608  1
  Ni  Ni6_7  1  0.50000000  0.59589612  0.70197608  1
  Ni  Ni7_0  1  0.00000000  0.09438249  0.45292033  1
  Ni  Ni7_1  1  0.00000000  0.09438249  0.95292033  1
  Ni  Ni7_2  1  0.00000000  0.59438249  0.45292033  1
  Ni  Ni7_3  1  0.00000000  0.59438249  0.95292033  1
  Ni  Ni7_4  1  0.50000000  0.09438249  0.45292033  1
  Ni  Ni7_5  1  0.50000000  0.09438249  0.95292033  1
  Ni  Ni7_6  1  0.50000000  0.59438249  0.45292033  1
  Ni  Ni7_7  1  0.50000000  0.59438249  0.95292033  1
loop_
_geom_bond_atom_site_label_1
_geom_bond_atom_site_label_2
_geom_bond_distance
_geom_bond_site_symmetry_2
Tb11_0 Tb16_5 3.524359 1_555
Tb11_0 Tb16_1 3.524359 1_555
Tb11_1 Tb16_0 3.524359 1_556
Tb11_1 Tb16_4 3.524359 1_556
Tb11_2 Tb16_3 3.524359 1_555
Tb11_2 Tb16_7 3.524359 1_555
Tb11_3 Tb16_6 3.524359 1_556
Tb11_3 Tb16_2 3.524359 1_556
Tb11_4 Tb16_5 3.524359 1_555
Tb11_4 Tb16_1 3.524359 1_655
Tb11_5 Tb16_4 3.524359 1_556
Tb11_5 Tb16_0 3.524359 1_656
Tb11_6 Tb16_7 3.524359 1_555
Tb11_6 Tb16_3 3.524359 1_655
Tb11_7 Tb16_6 3.524359 1_556
Tb11_7 Tb16_2 3.524359 1_656
Tb12_0 Tb16_2 3.510690 1_555
Tb12_0 Tb16_6 3.510690 1_555
Tb12_1 Tb16_3 3.510690 1_555
Tb12_1 Tb16_7 3.510690 1_555
Tb12_2 Tb16_4 3.510690 1_565
Tb12_2 Tb16_0 3.510690 1_565
Tb12_3 Tb16_1 3.510690 1_565
Tb12_3 Tb16_5 3.510690 1_565
Tb12_4 Tb16_6 3.510690 1_555
Tb12_4 Tb16_2 3.510690 1_655
Tb12_5 Tb16_7 3.510690 1_555
Tb12_5 Tb16_3 3.510690 1_655
Tb12_6 Tb16_4 3.510690 1_565
Tb12_6 Tb16_0 3.510690 1_665
Tb12_7 Tb16_5 3.510690 1_565
Tb12_7 Tb16_1 3.510690 1_665
Tb14_0 Tb16_0 3.510690 1_555
Tb14_0 Tb16_4 3.510690 1_555
Tb14_1 Tb16_1 3.510690 1_555
Tb14_1 Tb16_5 3.510690 1_555
Tb14_2 Tb16_2 3.510690 1_555
Tb14_2 Tb16_6 3.510690 1_555
Tb14_3 Tb16_3 3.510690 1_555
Tb14_3 Tb16_7 3.510690 1_555
Tb14_4 Tb16_4 3.510690 1_555
Tb14_4 Tb16_0 3.510690 1_655
Tb14_5 Tb16_5 3.510690 1_555
Tb14_5 Tb16_1 3.510690 1_655
Tb14_6 Tb16_6 3.510690 1_555
Tb14_6 Tb16_2 3.510690 1_655
Tb14_7 Tb16_7 3.510690 1_555
Tb14_7 Tb16_3 3.510690 1_655
Tb16_0 Tb8_0 3.524359 1_555
Tb16_0 Tb8_4 3.524359 1_455
Tb16_0 Tb16_4 3.596177 1_555
Tb16_0 Tb16_4 3.596177 1_455
Tb16_1 Tb8_1 3.524359 1_555
Tb16_1 Tb8_5 3.524359 1_455
Tb16_1 Tb16_5 3.596177 1_555
Tb16_1 Tb16_5 3.596177 1_455
Tb16_2 Tb8_2 3.524359 1_555
Tb16_2 Tb8_6 3.524359 1_455
Tb16_2 Tb16_6 3.596177 1_555
Tb16_2 Tb16_6 3.596177 1_455
Tb16_3 Tb8_3 3.524359 1_555
Tb16_3 Tb8_7 3.524359 1_455
Tb16_3 Tb16_7 3.596177 1_555
Tb16_3 Tb16_7 3.596177 1_455
Tb16_4 Tb8_4 3.524359 1_555
Tb16_4 Tb8_0 3.524359 1_555
Tb16_5 Tb8_5 3.524359 1_555
Tb16_5 Tb8_1 3.524359 1_555
Tb16_6 Tb8_6 3.524359 1_555
Tb16_6 Tb8_2 3.524359 1_555
Tb16_7 Tb8_3 3.524359 1_555
Tb16_7 Tb8_7 3.524359 1_555
Mg0_0 Mg3_1 3.185495 1_554
Mg0_0 Tb0_0 3.315138 1_555
Mg0_0 Tb4_0 3.315138 1_555
Mg0_0 Tb0_4 3.315138 1_455
Mg0_0 Tb4_4 3.315138 1_455
Mg0_0 Tb12_0 3.423378 1_555
Mg0_0 Tb12_4 3.423378 1_455
Mg0_0 Tb14_0 3.423378 1_555
Mg0_0 Tb14_4 3.423378 1_455
Mg0_1 Mg3_0 3.185495 1_555
Mg0_1 Tb4_1 3.315138 1_555
Mg0_1 Tb0_1 3.315138 1_555
Mg0_1 Tb0_5 3.315138 1_455
Mg0_1 Tb4_5 3.315138 1_455
Mg0_1 Tb12_1 3.423378 1_555
Mg0_1 Tb12_5 3.423378 1_455
Mg0_1 Tb14_1 3.423378 1_555
Mg0_1 Tb14_5 3.423378 1_455
Mg0_2 Mg3_3 3.185495 1_554
Mg0_2 Tb0_2 3.315138 1_555
Mg0_2 Tb0_6 3.315138 1_455
Mg0_2 Tb4_2 3.315138 1_555
Mg0_2 Tb4_6 3.315138 1_455
Mg0_2 Tb12_2 3.423378 1_555
Mg0_2 Tb12_6 3.423378 1_455
Mg0_2 Tb14_2 3.423378 1_555
Mg0_2 Tb14_6 3.423378 1_455
Mg0_3 Mg3_2 3.185495 1_555
Mg0_3 Tb0_3 3.315138 1_555
Mg0_3 Tb0_7 3.315138 1_455
Mg0_3 Tb4_3 3.315138 1_555
Mg0_3 Tb4_7 3.315138 1_455
Mg0_3 Tb12_3 3.423378 1_555
Mg0_3 Tb12_7 3.423378 1_455
Mg0_3 Tb14_3 3.423378 1_555
Mg0_3 Tb14_7 3.423378 1_455
Mg0_4 Mg3_5 3.185495 1_554
Mg0_4 Tb4_4 3.315138 1_555
Mg0_4 Tb0_0 3.315138 1_555
Mg0_4 Tb0_4 3.315138 1_555
Mg0_4 Tb4_0 3.315138 1_555
Mg0_4 Tb12_4 3.423378 1_555
Mg0_4 Tb12_0 3.423378 1_555
Mg0_4 Tb14_0 3.423378 1_555
Mg0_4 Tb14_4 3.423378 1_555
Mg0_5 Mg3_4 3.185495 1_555
Mg0_5 Tb4_1 3.315138 1_555
Mg0_5 Tb0_5 3.315138 1_555
Mg0_5 Tb4_5 3.315138 1_555
Mg0_5 Tb0_1 3.315138 1_555
Mg0_5 Tb12_1 3.423378 1_555
Mg0_5 Tb12_5 3.423378 1_555
Mg0_5 Tb14_1 3.423378 1_555
Mg0_5 Tb14_5 3.423378 1_555
Mg0_6 Mg3_7 3.185495 1_554
Mg0_6 Tb0_2 3.315138 1_555
Mg0_6 Tb0_6 3.315138 1_555
Mg0_6 Tb4_6 3.315138 1_555
Mg0_6 Tb4_2 3.315138 1_555
Mg0_6 Tb12_2 3.423378 1_555
Mg0_6 Tb12_6 3.423378 1_555
Mg0_6 Tb14_6 3.423378 1_555
Mg0_6 Tb14_2 3.423378 1_555
Mg0_7 Mg3_6 3.185495 1_555
Mg0_7 Tb0_3 3.315138 1_555
Mg0_7 Tb0_7 3.315138 1_555
Mg0_7 Tb4_3 3.315138 1_555
Mg0_7 Tb4_7 3.315138 1_555
Mg0_7 Tb12_3 3.423378 1_555
Mg0_7 Tb12_7 3.423378 1_555
Mg0_7 Tb14_3 3.423378 1_555
Mg0_7 Tb14_7 3.423378 1_555
Mg1_0 Mg2_0 2.982885 1_555
Mg1_0 Tb1_0 3.294519 1_555
Mg1_0 Tb5_0 3.294519 1_555
Mg1_0 Tb1_4 3.294519 1_455
Mg1_0 Tb5_4 3.294519 1_455
Mg1_0 Tb15_0 3.525185 1_555
Mg1_0 Tb13_0 3.525185 1_555
Mg1_0 Tb15_4 3.525185 1_455
Mg1_0 Tb13_4 3.525185 1_455
Mg1_1 Mg2_1 2.982885 1_555
Mg1_1 Tb1_1 3.294519 1_555
Mg1_1 Tb1_5 3.294519 1_455
Mg1_1 Tb5_1 3.294519 1_555
Mg1_1 Tb5_5 3.294519 1_455
Mg1_1 Tb15_1 3.525185 1_555
Mg1_1 Tb15_5 3.525185 1_455
Mg1_1 Tb13_1 3.525185 1_555
Mg1_1 Tb13_5 3.525185 1_455
Mg1_2 Mg2_2 2.982885 1_555
Mg1_2 Tb1_2 3.294519 1_555
Mg1_2 Tb1_6 3.294519 1_455
Mg1_2 Tb5_2 3.294519 1_555
Mg1_2 Tb5_6 3.294519 1_455
Mg1_2 Tb15_2 3.525185 1_555
Mg1_2 Tb15_6 3.525185 1_455
Mg1_2 Tb13_2 3.525185 1_555
Mg1_2 Tb13_6 3.525185 1_455
Mg1_3 Mg2_3 2.982885 1_555
Mg1_3 Tb1_3 3.294519 1_555
Mg1_3 Tb1_7 3.294519 1_455
Mg1_3 Tb5_3 3.294519 1_555
Mg1_3 Tb5_7 3.294519 1_455
Mg1_3 Tb15_3 3.525185 1_555
Mg1_3 Tb15_7 3.525185 1_455
Mg1_3 Tb13_3 3.525185 1_555
Mg1_3 Tb13_7 3.525185 1_455
Mg1_4 Mg2_4 2.982885 1_555
Mg1_4 Tb1_0 3.294519 1_555
Mg1_4 Tb1_4 3.294519 1_555
Mg1_4 Tb5_0 3.294519 1_555
Mg1_4 Tb5_4 3.294519 1_555
Mg1_4 Tb15_4 3.525185 1_555
Mg1_4 Tb15_0 3.525185 1_555
Mg1_4 Tb13_0 3.525185 1_555
Mg1_4 Tb13_4 3.525185 1_555
Mg1_5 Mg2_5 2.982885 1_555
Mg1_5 Tb1_5 3.294519 1_555
Mg1_5 Tb1_1 3.294519 1_555
Mg1_5 Tb5_1 3.294519 1_555
Mg1_5 Tb5_5 3.294519 1_555
Mg1_5 Tb15_5 3.525185 1_555
Mg1_5 Tb15_1 3.525185 1_555
Mg1_5 Tb13_5 3.525185 1_555
Mg1_5 Tb13_1 3.525185 1_555
Mg1_6 Mg2_6 2.982885 1_555
Mg1_6 Tb1_6 3.294519 1_555
Mg1_6 Tb1_2 3.294519 1_555
Mg1_6 Tb5_2 3.294519 1_555
Mg1_6 Tb5_6 3.294519 1_555
Mg1_6 Tb15_2 3.525185 1_555
Mg1_6 Tb15_6 3.525185 1_555
Mg1_6 Tb13_2 3.525185 1_555
Mg1_6 Tb13_6 3.525185 1_555
Mg1_7 Mg2_7 2.982885 1_555
Mg1_7 Tb1_3 3.294519 1_555
Mg1_7 Tb1_7 3.294519 1_555
Mg1_7 Tb5_3 3.294519 1_555
Mg1_7 Tb5_7 3.294519 1_555
Mg1_7 Tb15_3 3.525185 1_555
Mg1_7 Tb15_7 3.525185 1_555
Mg1_7 Tb13_7 3.525185 1_555
Mg1_7 Tb13_3 3.525185 1_555
Mg2_0 Tb6_0 3.294519 1_555
Mg2_0 Tb2_0 3.294519 1_555
Mg2_0 Tb6_4 3.294519 1_455
Mg2_0 Tb2_4 3.294519 1_455
Mg2_0 Tb15_0 3.525185 1_555
Mg2_0 Tb13_0 3.525185 1_555
Mg2_0 Tb15_4 3.525185 1_455
Mg2_0 Tb13_4 3.525185 1_455
Mg2_1 Tb6_1 3.294519 1_555
Mg2_1 Tb6_5 3.294519 1_455
Mg2_1 Tb2_1 3.294519 1_555
Mg2_1 Tb2_5 3.294519 1_455
Mg2_1 Tb15_1 3.525185 1_555
Mg2_1 Tb13_1 3.525185 1_555
Mg2_1 Tb15_5 3.525185 1_455
Mg2_1 Tb13_5 3.525185 1_455
Mg2_2 Tb6_2 3.294519 1_555
Mg2_2 Tb6_6 3.294519 1_455
Mg2_2 Tb2_2 3.294519 1_555
Mg2_2 Tb2_6 3.294519 1_455
Mg2_2 Tb15_2 3.525185 1_555
Mg2_2 Tb15_6 3.525185 1_455
Mg2_2 Tb13_2 3.525185 1_555
Mg2_2 Tb13_6 3.525185 1_455
Mg2_3 Tb6_3 3.294519 1_555
Mg2_3 Tb6_7 3.294519 1_455
Mg2_3 Tb2_3 3.294519 1_555
Mg2_3 Tb2_7 3.294519 1_455
Mg2_3 Tb15_3 3.525185 1_555
Mg2_3 Tb15_7 3.525185 1_455
Mg2_3 Tb13_3 3.525185 1_555
Mg2_3 Tb13_7 3.525185 1_455
Mg2_4 Tb6_0 3.294519 1_555
Mg2_4 Tb6_4 3.294519 1_555
Mg2_4 Tb2_0 3.294519 1_555
Mg2_4 Tb2_4 3.294519 1_555
Mg2_4 Tb15_4 3.525185 1_555
Mg2_4 Tb15_0 3.525185 1_555
Mg2_4 Tb13_0 3.525185 1_555
Mg2_4 Tb13_4 3.525185 1_555
Mg2_5 Tb6_1 3.294519 1_555
Mg2_5 Tb6_5 3.294519 1_555
Mg2_5 Tb2_5 3.294519 1_555
Mg2_5 Tb2_1 3.294519 1_555
Mg2_5 Tb15_5 3.525185 1_555
Mg2_5 Tb15_1 3.525185 1_555
Mg2_5 Tb13_5 3.525185 1_555
Mg2_5 Tb13_1 3.525185 1_555
Mg2_6 Tb6_2 3.294519 1_555
Mg2_6 Tb6_6 3.294519 1_555
Mg2_6 Tb2_2 3.294519 1_555
Mg2_6 Tb2_6 3.294519 1_555
Mg2_6 Tb15_2 3.525185 1_555
Mg2_6 Tb15_6 3.525185 1_555
Mg2_6 Tb13_2 3.525185 1_555
Mg2_6 Tb13_6 3.525185 1_555
Mg2_7 Tb6_3 3.294519 1_555
Mg2_7 Tb6_7 3.294519 1_555
Mg2_7 Tb2_3 3.294519 1_555
Mg2_7 Tb2_7 3.294519 1_555
Mg2_7 Tb15_3 3.525185 1_555
Mg2_7 Tb15_7 3.525185 1_555
Mg2_7 Tb13_7 3.525185 1_555
Mg2_7 Tb13_3 3.525185 1_555
Mg3_0 Tb3_0 3.315138 1_555
Mg3_0 Tb7_0 3.315138 1_555
Mg3_0 Tb7_4 3.315138 1_455
Mg3_0 Tb3_4 3.315138 1_455
Mg3_0 Tb12_1 3.423378 1_555
Mg3_0 Tb12_5 3.423378 1_455
Mg3_0 Tb14_1 3.423378 1_555
Mg3_0 Tb14_5 3.423378 1_455
Mg3_1 Tb3_1 3.315138 1_555
Mg3_1 Tb7_1 3.315138 1_555
Mg3_1 Tb3_5 3.315138 1_455
Mg3_1 Tb7_5 3.315138 1_455
Mg3_1 Tb12_0 3.423378 1_556
Mg3_1 Tb12_4 3.423378 1_456
Mg3_1 Tb14_0 3.423378 1_556
Mg3_1 Tb14_4 3.423378 1_456
Mg3_2 Tb7_2 3.315138 1_555
Mg3_2 Tb7_6 3.315138 1_455
Mg3_2 Tb3_2 3.315138 1_555
Mg3_2 Tb3_6 3.315138 1_455
Mg3_2 Tb12_3 3.423378 1_555
Mg3_2 Tb12_7 3.423378 1_455
Mg3_2 Tb14_3 3.423378 1_555
Mg3_2 Tb14_7 3.423378 1_455
Mg3_3 Tb7_3 3.315138 1_555
Mg3_3 Tb7_7 3.315138 1_455
Mg3_3 Tb3_3 3.315138 1_555
Mg3_3 Tb3_7 3.315138 1_455
Mg3_3 Tb12_2 3.423378 1_556
Mg3_3 Tb12_6 3.423378 1_456
Mg3_3 Tb14_2 3.423378 1_556
Mg3_3 Tb14_6 3.423378 1_456
Mg3_4 Tb3_0 3.315138 1_555
Mg3_4 Tb7_0 3.315138 1_555
Mg3_4 Tb3_4 3.315138 1_555
Mg3_4 Tb7_4 3.315138 1_555
Mg3_4 Tb12_1 3.423378 1_555
Mg3_4 Tb12_5 3.423378 1_555
Mg3_4 Tb14_5 3.423378 1_555
Mg3_4 Tb14_1 3.423378 1_555
Mg3_5 Tb3_1 3.315138 1_555
Mg3_5 Tb3_5 3.315138 1_555
Mg3_5 Tb7_1 3.315138 1_555
Mg3_5 Tb7_5 3.315138 1_555
Mg3_5 Tb12_0 3.423378 1_556
Mg3_5 Tb12_4 3.423378 1_556
Mg3_5 Tb14_0 3.423378 1_556
Mg3_5 Tb14_4 3.423378 1_556
Mg3_6 Tb7_6 3.315138 1_555
Mg3_6 Tb7_2 3.315138 1_555
Mg3_6 Tb3_2 3.315138 1_555
Mg3_6 Tb3_6 3.315138 1_555
Mg3_6 Tb12_3 3.423378 1_555
Mg3_6 Tb12_7 3.423378 1_555
Mg3_6 Tb14_7 3.423378 1_555
Mg3_6 Tb14_3 3.423378 1_555
Mg3_7 Tb7_3 3.315138 1_555
Mg3_7 Tb7_7 3.315138 1_555
Mg3_7 Tb3_3 3.315138 1_555
Mg3_7 Tb3_7 3.315138 1_555
Mg3_7 Tb12_2 3.423378 1_556
Mg3_7 Tb12_6 3.423378 1_556
Mg3_7 Tb14_2 3.423378 1_556
Mg3_7 Tb14_6 3.423378 1_556
Mg4_0 Mg6_2 3.068626 1_555
Mg4_0 Tb2_0 3.278009 1_555
Mg4_0 Tb2_4 3.278009 1_455
Mg4_0 Ni2_0 3.293968 1_555
Mg4_0 Tb4_0 3.334592 1_555
Mg4_0 Tb4_4 3.334592 1_455
Mg4_0 Tb10_2 3.475106 1_555
Mg4_0 Tb10_6 3.475106 1_455
Mg4_0 Tb8_2 3.477109 1_555
Mg4_0 Tb8_6 3.477109 1_455
Mg4_1 Mg6_3 3.068626 1_555
Mg4_1 Tb2_1 3.278009 1_555
Mg4_1 Tb2_5 3.278009 1_455
Mg4_1 Ni2_1 3.293968 1_555
Mg4_1 Tb4_1 3.334592 1_555
Mg4_1 Tb4_5 3.334592 1_455
Mg4_1 Tb10_3 3.475106 1_555
Mg4_1 Tb10_7 3.475106 1_455
Mg4_1 Tb8_3 3.477109 1_555
Mg4_1 Tb8_7 3.477109 1_455
Mg4_2 Mg6_0 3.068626 1_565
Mg4_2 Tb2_2 3.278009 1_555
Mg4_2 Tb2_6 3.278009 1_455
Mg4_2 Ni2_2 3.293968 1_555
Mg4_2 Tb4_2 3.334592 1_555
Mg4_2 Tb4_6 3.334592 1_455
Mg4_2 Tb10_0 3.475106 1_565
Mg4_2 Tb10_4 3.475106 1_465
Mg4_2 Tb8_0 3.477109 1_565
Mg4_2 Tb8_4 3.477109 1_465
Mg4_3 Mg6_1 3.068626 1_565
Mg4_3 Tb2_3 3.278009 1_555
Mg4_3 Tb2_7 3.278009 1_455
Mg4_3 Ni2_3 3.293968 1_555
Mg4_3 Tb4_3 3.334592 1_555
Mg4_3 Tb4_7 3.334592 1_455
Mg4_3 Tb10_1 3.475106 1_565
Mg4_3 Tb10_5 3.475106 1_465
Mg4_3 Tb8_1 3.477109 1_565
Mg4_3 Tb8_5 3.477109 1_465
Mg4_4 Mg6_6 3.068626 1_555
Mg4_4 Tb2_0 3.278009 1_555
Mg4_4 Tb2_4 3.278009 1_555
Mg4_4 Ni2_4 3.293968 1_555
Mg4_4 Tb4_0 3.334592 1_555
Mg4_4 Tb4_4 3.334592 1_555
Mg4_4 Tb10_6 3.475106 1_555
Mg4_4 Tb10_2 3.475106 1_555
Mg4_4 Tb8_2 3.477109 1_555
Mg4_4 Tb8_6 3.477109 1_555
Mg4_5 Mg6_7 3.068626 1_555
Mg4_5 Tb2_5 3.278009 1_555
Mg4_5 Tb2_1 3.278009 1_555
Mg4_5 Ni2_5 3.293968 1_555
Mg4_5 Tb4_1 3.334592 1_555
Mg4_5 Tb4_5 3.334592 1_555
Mg4_5 Tb10_3 3.475106 1_555
Mg4_5 Tb10_7 3.475106 1_555
Mg4_5 Tb8_3 3.477109 1_555
Mg4_5 Tb8_7 3.477109 1_555
Mg4_6 Mg6_4 3.068626 1_565
Mg4_6 Tb2_2 3.278009 1_555
Mg4_6 Tb2_6 3.278009 1_555
Mg4_6 Ni2_6 3.293968 1_555
Mg4_6 Tb4_2 3.334592 1_555
Mg4_6 Tb4_6 3.334592 1_555
Mg4_6 Tb10_4 3.475106 1_565
Mg4_6 Tb10_0 3.475106 1_565
Mg4_6 Tb8_4 3.477109 1_565
Mg4_6 Tb8_0 3.477109 1_565
Mg4_7 Mg6_5 3.068626 1_565
Mg4_7 Tb2_3 3.278009 1_555
Mg4_7 Tb2_7 3.278009 1_555
Mg4_7 Ni2_7 3.293968 1_555
Mg4_7 Tb4_3 3.334592 1_555
Mg4_7 Tb4_7 3.334592 1_555
Mg4_7 Tb10_5 3.475106 1_565
Mg4_7 Tb10_1 3.475106 1_565
Mg4_7 Tb8_1 3.477109 1_565
Mg4_7 Tb8_5 3.477109 1_565
Mg5_0 Mg7_2 3.068626 1_555
Mg5_0 Tb5_0 3.278009 1_555
Mg5_0 Tb5_4 3.278009 1_455
Mg5_0 Ni5_0 3.293968 1_555
Mg5_0 Tb3_0 3.334592 1_555
Mg5_0 Tb3_4 3.334592 1_455
Mg5_0 Tb9_2 3.475106 1_555
Mg5_0 Tb9_6 3.475106 1_455
Mg5_0 Tb11_2 3.477109 1_555
Mg5_0 Tb11_6 3.477109 1_455
Mg5_1 Mg7_3 3.068626 1_555
Mg5_1 Tb5_1 3.278009 1_555
Mg5_1 Tb5_5 3.278009 1_455
Mg5_1 Ni5_1 3.293968 1_555
Mg5_1 Tb3_1 3.334592 1_555
Mg5_1 Tb3_5 3.334592 1_455
Mg5_1 Tb9_3 3.475106 1_555
Mg5_1 Tb9_7 3.475106 1_455
Mg5_1 Tb11_3 3.477109 1_555
Mg5_1 Tb11_7 3.477109 1_455
Mg5_2 Mg7_0 3.068626 1_565
Mg5_2 Tb5_2 3.278009 1_555
Mg5_2 Tb5_6 3.278009 1_455
Mg5_2 Ni5_2 3.293968 1_555
Mg5_2 Tb3_2 3.334592 1_555
Mg5_2 Tb3_6 3.334592 1_455
Mg5_2 Tb9_0 3.475106 1_565
Mg5_2 Tb9_4 3.475106 1_465
Mg5_2 Tb11_0 3.477109 1_565
Mg5_2 Tb11_4 3.477109 1_465
Mg5_3 Mg7_1 3.068626 1_565
Mg5_3 Tb5_3 3.278009 1_555
Mg5_3 Tb5_7 3.278009 1_455
Mg5_3 Ni5_3 3.293968 1_555
Mg5_3 Tb3_3 3.334592 1_555
Mg5_3 Tb3_7 3.334592 1_455
Mg5_3 Tb9_1 3.475106 1_565
Mg5_3 Tb9_5 3.475106 1_465
Mg5_3 Tb11_1 3.477109 1_565
Mg5_3 Tb11_5 3.477109 1_465
Mg5_4 Mg7_6 3.068626 1_555
Mg5_4 Tb5_0 3.278009 1_555
Mg5_4 Tb5_4 3.278009 1_555
Mg5_4 Ni5_4 3.293968 1_555
Mg5_4 Tb3_0 3.334592 1_555
Mg5_4 Tb3_4 3.334592 1_555
Mg5_4 Tb9_6 3.475106 1_555
Mg5_4 Tb9_2 3.475106 1_555
Mg5_4 Tb11_2 3.477109 1_555
Mg5_4 Tb11_6 3.477109 1_555
Mg5_5 Mg7_7 3.068626 1_555
Mg5_5 Tb5_5 3.278009 1_555
Mg5_5 Tb5_1 3.278009 1_555
Mg5_5 Ni5_5 3.293968 1_555
Mg5_5 Tb3_1 3.334592 1_555
Mg5_5 Tb3_5 3.334592 1_555
Mg5_5 Tb9_7 3.475106 1_555
Mg5_5 Tb9_3 3.475106 1_555
Mg5_5 Tb11_3 3.477109 1_555
Mg5_5 Tb11_7 3.477109 1_555
Mg5_6 Mg7_4 3.068626 1_565
Mg5_6 Tb5_6 3.278009 1_555
Mg5_6 Tb5_2 3.278009 1_555
Mg5_6 Ni5_6 3.293968 1_555
Mg5_6 Tb3_2 3.334592 1_555
Mg5_6 Tb3_6 3.334592 1_555
Mg5_6 Tb9_0 3.475106 1_565
Mg5_6 Tb9_4 3.475106 1_565
Mg5_6 Tb11_4 3.477109 1_565
Mg5_6 Tb11_0 3.477109 1_565
Mg5_7 Mg7_5 3.068626 1_565
Mg5_7 Tb5_7 3.278009 1_555
Mg5_7 Tb5_3 3.278009 1_555
Mg5_7 Ni5_7 3.293968 1_555
Mg5_7 Tb3_3 3.334592 1_555
Mg5_7 Tb3_7 3.334592 1_555
Mg5_7 Tb9_1 3.475106 1_565
Mg5_7 Tb9_5 3.475106 1_565
Mg5_7 Tb11_5 3.477109 1_565
Mg5_7 Tb11_1 3.477109 1_565
Mg6_0 Tb6_0 3.278009 1_555
Mg6_0 Tb6_4 3.278009 1_455
Mg6_0 Ni6_0 3.293968 1_555
Mg6_0 Tb0_0 3.334592 1_555
Mg6_0 Tb0_4 3.334592 1_455
Mg6_0 Tb10_0 3.475106 1_555
Mg6_0 Tb10_4 3.475106 1_455
Mg6_0 Tb8_0 3.477109 1_555
Mg6_0 Tb8_4 3.477109 1_455
Mg6_1 Tb6_1 3.278009 1_555
Mg6_1 Tb6_5 3.278009 1_455
Mg6_1 Ni6_1 3.293968 1_555
Mg6_1 Tb0_1 3.334592 1_555
Mg6_1 Tb0_5 3.334592 1_455
Mg6_1 Tb10_1 3.475106 1_555
Mg6_1 Tb10_5 3.475106 1_455
Mg6_1 Tb8_1 3.477109 1_555
Mg6_1 Tb8_5 3.477109 1_455
Mg6_2 Tb6_2 3.278009 1_555
Mg6_2 Tb6_6 3.278009 1_455
Mg6_2 Ni6_2 3.293968 1_555
Mg6_2 Tb0_2 3.334592 1_555
Mg6_2 Tb0_6 3.334592 1_455
Mg6_2 Tb10_2 3.475106 1_555
Mg6_2 Tb10_6 3.475106 1_455
Mg6_2 Tb8_2 3.477109 1_555
Mg6_2 Tb8_6 3.477109 1_455
Mg6_3 Tb6_3 3.278009 1_555
Mg6_3 Tb6_7 3.278009 1_455
Mg6_3 Ni6_3 3.293968 1_555
Mg6_3 Tb0_3 3.334592 1_555
Mg6_3 Tb0_7 3.334592 1_455
Mg6_3 Tb10_3 3.475106 1_555
Mg6_3 Tb10_7 3.475106 1_455
Mg6_3 Tb8_3 3.477109 1_555
Mg6_3 Tb8_7 3.477109 1_455
Mg6_4 Tb6_4 3.278009 1_555
Mg6_4 Tb6_0 3.278009 1_555
Mg6_4 Ni6_4 3.293968 1_555
Mg6_4 Tb0_4 3.334592 1_555
Mg6_4 Tb0_0 3.334592 1_555
Mg6_4 Tb10_0 3.475106 1_555
Mg6_4 Tb10_4 3.475106 1_555
Mg6_4 Tb8_4 3.477109 1_555
Mg6_4 Tb8_0 3.477109 1_555
Mg6_5 Tb6_1 3.278009 1_555
Mg6_5 Tb6_5 3.278009 1_555
Mg6_5 Ni6_5 3.293968 1_555
Mg6_5 Tb0_1 3.334592 1_555
Mg6_5 Tb0_5 3.334592 1_555
Mg6_5 Tb10_1 3.475106 1_555
Mg6_5 Tb10_5 3.475106 1_555
Mg6_5 Tb8_1 3.477109 1_555
Mg6_5 Tb8_5 3.477109 1_555
Mg6_6 Tb6_2 3.278009 1_555
Mg6_6 Tb6_6 3.278009 1_555
Mg6_6 Ni6_6 3.293968 1_555
Mg6_6 Tb0_6 3.334592 1_555
Mg6_6 Tb0_2 3.334592 1_555
Mg6_6 Tb10_6 3.475106 1_555
Mg6_6 Tb10_2 3.475106 1_555
Mg6_6 Tb8_6 3.477109 1_555
Mg6_6 Tb8_2 3.477109 1_555
Mg6_7 Tb6_3 3.278009 1_555
Mg6_7 Tb6_7 3.278009 1_555
Mg6_7 Ni6_7 3.293968 1_555
Mg6_7 Tb0_7 3.334592 1_555
Mg6_7 Tb0_3 3.334592 1_555
Mg6_7 Tb10_7 3.475106 1_555
Mg6_7 Tb10_3 3.475106 1_555
Mg6_7 Tb8_3 3.477109 1_555
Mg6_7 Tb8_7 3.477109 1_555
Mg7_0 Tb1_0 3.278009 1_555
Mg7_0 Tb1_4 3.278009 1_455
Mg7_0 Ni1_0 3.293968 1_555
Mg7_0 Tb7_0 3.334592 1_555
Mg7_0 Tb7_4 3.334592 1_455
Mg7_0 Tb9_0 3.475106 1_555
Mg7_0 Tb9_4 3.475106 1_455
Mg7_0 Tb11_0 3.477109 1_555
Mg7_0 Tb11_4 3.477109 1_455
Mg7_1 Tb1_1 3.278009 1_555
Mg7_1 Tb1_5 3.278009 1_455
Mg7_1 Ni1_1 3.293968 1_555
Mg7_1 Tb7_1 3.334592 1_555
Mg7_1 Tb7_5 3.334592 1_455
Mg7_1 Tb9_1 3.475106 1_555
Mg7_1 Tb9_5 3.475106 1_455
Mg7_1 Tb11_1 3.477109 1_555
Mg7_1 Tb11_5 3.477109 1_455
Mg7_2 Tb1_2 3.278009 1_555
Mg7_2 Tb1_6 3.278009 1_455
Mg7_2 Ni1_2 3.293968 1_555
Mg7_2 Tb7_2 3.334592 1_555
Mg7_2 Tb7_6 3.334592 1_455
Mg7_2 Tb9_2 3.475106 1_555
Mg7_2 Tb9_6 3.475106 1_455
Mg7_2 Tb11_2 3.477109 1_555
Mg7_2 Tb11_6 3.477109 1_455
Mg7_3 Tb1_3 3.278009 1_555
Mg7_3 Tb1_7 3.278009 1_455
Mg7_3 Ni1_3 3.293968 1_555
Mg7_3 Tb7_3 3.334592 1_555
Mg7_3 Tb7_7 3.334592 1_455
Mg7_3 Tb9_3 3.475106 1_555
Mg7_3 Tb9_7 3.475106 1_455
Mg7_3 Tb11_3 3.477109 1_555
Mg7_3 Tb11_7 3.477109 1_455
Mg7_4 Tb1_4 3.278009 1_555
Mg7_4 Tb1_0 3.278009 1_555
Mg7_4 Ni1_4 3.293968 1_555
Mg7_4 Tb7_0 3.334592 1_555
Mg7_4 Tb7_4 3.334592 1_555
Mg7_4 Tb9_4 3.475106 1_555
Mg7_4 Tb9_0 3.475106 1_555
Mg7_4 Tb11_0 3.477109 1_555
Mg7_4 Tb11_4 3.477109 1_555
Mg7_5 Tb1_5 3.278009 1_555
Mg7_5 Tb1_1 3.278009 1_555
Mg7_5 Ni1_5 3.293968 1_555
Mg7_5 Tb7_1 3.334592 1_555
Mg7_5 Tb7_5 3.334592 1_555
Mg7_5 Tb9_5 3.475106 1_555
Mg7_5 Tb9_1 3.475106 1_555
Mg7_5 Tb11_1 3.477109 1_555
Mg7_5 Tb11_5 3.477109 1_555
Mg7_6 Tb1_2 3.278009 1_555
Mg7_6 Tb1_6 3.278009 1_555
Mg7_6 Ni1_6 3.293968 1_555
Mg7_6 Tb7_6 3.334592 1_555
Mg7_6 Tb7_2 3.334592 1_555
Mg7_6 Tb9_2 3.475106 1_555
Mg7_6 Tb9_6 3.475106 1_555
Mg7_6 Tb11_6 3.477109 1_555
Mg7_6 Tb11_2 3.477109 1_555
Mg7_7 Tb1_7 3.278009 1_555
Mg7_7 Tb1_3 3.278009 1_555
Mg7_7 Ni1_7 3.293968 1_555
Mg7_7 Tb7_3 3.334592 1_555
Mg7_7 Tb7_7 3.334592 1_555
Mg7_7 Tb9_3 3.475106 1_555
Mg7_7 Tb9_7 3.475106 1_555
Mg7_7 Tb11_7 3.477109 1_555
Mg7_7 Tb11_3 3.477109 1_555
Mg8_0 Tb6_0 3.274661 1_555
Mg8_0 Tb2_0 3.274661 1_555
Mg8_0 Tb6_4 3.274661 1_455
Mg8_0 Tb2_4 3.274661 1_455
Mg8_0 Tb0_0 3.288784 1_555
Mg8_0 Tb4_0 3.288784 1_555
Mg8_0 Tb4_4 3.288784 1_455
Mg8_0 Tb0_4 3.288784 1_455
Mg8_1 Tb6_1 3.274661 1_555
Mg8_1 Tb2_1 3.274661 1_555
Mg8_1 Tb6_5 3.274661 1_455
Mg8_1 Tb2_5 3.274661 1_455
Mg8_1 Tb0_1 3.288784 1_555
Mg8_1 Tb4_1 3.288784 1_555
Mg8_1 Tb0_5 3.288784 1_455
Mg8_1 Tb4_5 3.288784 1_455
Mg8_2 Tb6_2 3.274661 1_555
Mg8_2 Tb6_6 3.274661 1_455
Mg8_2 Tb2_2 3.274661 1_555
Mg8_2 Tb2_6 3.274661 1_455
Mg8_2 Tb0_2 3.288784 1_555
Mg8_2 Tb0_6 3.288784 1_455
Mg8_2 Tb4_2 3.288784 1_555
Mg8_2 Tb4_6 3.288784 1_455
Mg8_3 Tb6_3 3.274661 1_555
Mg8_3 Tb6_7 3.274661 1_455
Mg8_3 Tb2_3 3.274661 1_555
Mg8_3 Tb2_7 3.274661 1_455
Mg8_3 Tb0_3 3.288784 1_555
Mg8_3 Tb0_7 3.288784 1_455
Mg8_3 Tb4_3 3.288784 1_555
Mg8_3 Tb4_7 3.288784 1_455
Mg8_4 Tb6_0 3.274661 1_555
Mg8_4 Tb6_4 3.274661 1_555
Mg8_4 Tb2_0 3.274661 1_555
Mg8_4 Tb2_4 3.274661 1_555
Mg8_4 Tb0_4 3.288784 1_555
Mg8_4 Tb4_4 3.288784 1_555
Mg8_4 Tb0_0 3.288784 1_555
Mg8_4 Tb4_0 3.288784 1_555
Mg8_5 Tb6_1 3.274661 1_555
Mg8_5 Tb6_5 3.274661 1_555
Mg8_5 Tb2_1 3.274661 1_555
Mg8_5 Tb2_5 3.274661 1_555
Mg8_5 Tb4_5 3.288784 1_555
Mg8_5 Tb0_1 3.288784 1_555
Mg8_5 Tb4_1 3.288784 1_555
Mg8_5 Tb0_5 3.288784 1_555
Mg8_6 Tb6_6 3.274661 1_555
Mg8_6 Tb6_2 3.274661 1_555
Mg8_6 Tb2_2 3.274661 1_555
Mg8_6 Tb2_6 3.274661 1_555
Mg8_6 Tb0_6 3.288784 1_555
Mg8_6 Tb0_2 3.288784 1_555
Mg8_6 Tb4_6 3.288784 1_555
Mg8_6 Tb4_2 3.288784 1_555
Mg8_7 Tb6_7 3.274661 1_555
Mg8_7 Tb6_3 3.274661 1_555
Mg8_7 Tb2_3 3.274661 1_555
Mg8_7 Tb2_7 3.274661 1_555
Mg8_7 Tb0_3 3.288784 1_555
Mg8_7 Tb0_7 3.288784 1_555
Mg8_7 Tb4_3 3.288784 1_555
Mg8_7 Tb4_7 3.288784 1_555
Mg9_0 Tb1_0 3.274661 1_555
Mg9_0 Tb5_0 3.274661 1_555
Mg9_0 Tb1_4 3.274661 1_455
Mg9_0 Tb5_4 3.274661 1_455
Mg9_0 Tb3_0 3.288784 1_555
Mg9_0 Tb7_0 3.288784 1_555
Mg9_0 Tb7_4 3.288784 1_455
Mg9_0 Tb3_4 3.288784 1_455
Mg9_1 Tb1_1 3.274661 1_555
Mg9_1 Tb1_5 3.274661 1_455
Mg9_1 Tb5_1 3.274661 1_555
Mg9_1 Tb5_5 3.274661 1_455
Mg9_1 Tb3_1 3.288784 1_555
Mg9_1 Tb7_1 3.288784 1_555
Mg9_1 Tb3_5 3.288784 1_455
Mg9_1 Tb7_5 3.288784 1_455
Mg9_2 Tb1_2 3.274661 1_555
Mg9_2 Tb1_6 3.274661 1_455
Mg9_2 Tb5_2 3.274661 1_555
Mg9_2 Tb5_6 3.274661 1_455
Mg9_2 Tb7_2 3.288784 1_555
Mg9_2 Tb7_6 3.288784 1_455
Mg9_2 Tb3_2 3.288784 1_555
Mg9_2 Tb3_6 3.288784 1_455
Mg9_3 Tb1_3 3.274661 1_555
Mg9_3 Tb1_7 3.274661 1_455
Mg9_3 Tb5_3 3.274661 1_555
Mg9_3 Tb5_7 3.274661 1_455
Mg9_3 Tb7_3 3.288784 1_555
Mg9_3 Tb7_7 3.288784 1_455
Mg9_3 Tb3_3 3.288784 1_555
Mg9_3 Tb3_7 3.288784 1_455
Mg9_4 Tb1_4 3.274661 1_555
Mg9_4 Tb1_0 3.274661 1_555
Mg9_4 Tb5_0 3.274661 1_555
Mg9_4 Tb5_4 3.274661 1_555
Mg9_4 Tb3_4 3.288784 1_555
Mg9_4 Tb7_4 3.288784 1_555
Mg9_4 Tb3_0 3.288784 1_555
Mg9_4 Tb7_0 3.288784 1_555
Mg9_5 Tb1_5 3.274661 1_555
Mg9_5 Tb1_1 3.274661 1_555
Mg9_5 Tb5_1 3.274661 1_555
Mg9_5 Tb5_5 3.274661 1_555
Mg9_5 Tb3_1 3.288784 1_555
Mg9_5 Tb3_5 3.288784 1_555
Mg9_5 Tb7_1 3.288784 1_555
Mg9_5 Tb7_5 3.288784 1_555
Mg9_6 Tb1_6 3.274661 1_555
Mg9_6 Tb1_2 3.274661 1_555
Mg9_6 Tb5_2 3.274661 1_555
Mg9_6 Tb5_6 3.274661 1_555
Mg9_6 Tb7_6 3.288784 1_555
Mg9_6 Tb7_2 3.288784 1_555
Mg9_6 Tb3_2 3.288784 1_555
Mg9_6 Tb3_6 3.288784 1_555
Mg9_7 Tb1_3 3.274661 1_555
Mg9_7 Tb1_7 3.274661 1_555
Mg9_7 Tb5_3 3.274661 1_555
Mg9_7 Tb5_7 3.274661 1_555
Mg9_7 Tb7_7 3.288784 1_555
Mg9_7 Tb7_3 3.288784 1_555
Mg9_7 Tb3_7 3.288784 1_555
Mg9_7 Tb3_3 3.288784 1_555
Mg10_0 Ni2_2 2.963622 1_545
Mg10_0 Ni5_2 2.963622 1_545
Mg10_0 Ni6_0 2.963622 1_555
Mg10_0 Ni1_0 2.963622 1_555
Mg10_0 Tb9_0 3.325906 1_555
Mg10_0 Tb9_4 3.325906 1_455
Mg10_0 Tb10_0 3.325906 1_555
Mg10_0 Tb10_4 3.325906 1_455
Mg10_0 Tb13_2 3.339815 1_545
Mg10_0 Tb13_6 3.339815 1_445
Mg10_0 Tb15_0 3.339815 1_555
Mg10_0 Tb15_4 3.339815 1_455
Mg10_1 Ni5_3 2.963622 1_545
Mg10_1 Ni2_3 2.963622 1_545
Mg10_1 Ni1_1 2.963622 1_555
Mg10_1 Ni6_1 2.963622 1_555
Mg10_1 Tb9_1 3.325906 1_555
Mg10_1 Tb9_5 3.325906 1_455
Mg10_1 Tb10_1 3.325906 1_555
Mg10_1 Tb10_5 3.325906 1_455
Mg10_1 Tb13_3 3.339815 1_545
Mg10_1 Tb13_7 3.339815 1_445
Mg10_1 Tb15_1 3.339815 1_555
Mg10_1 Tb15_5 3.339815 1_455
Mg10_2 Ni2_0 2.963622 1_555
Mg10_2 Ni6_2 2.963622 1_555
Mg10_2 Ni5_0 2.963622 1_555
Mg10_2 Ni1_2 2.963622 1_555
Mg10_2 Tb9_2 3.325906 1_555
Mg10_2 Tb9_6 3.325906 1_455
Mg10_2 Tb10_2 3.325906 1_555
Mg10_2 Tb10_6 3.325906 1_455
Mg10_2 Tb13_0 3.339815 1_555
Mg10_2 Tb13_4 3.339815 1_455
Mg10_2 Tb15_2 3.339815 1_555
Mg10_2 Tb15_6 3.339815 1_455
Mg10_3 Ni2_1 2.963622 1_555
Mg10_3 Ni5_1 2.963622 1_555
Mg10_3 Ni1_3 2.963622 1_555
Mg10_3 Ni6_3 2.963622 1_555
Mg10_3 Tb9_3 3.325906 1_555
Mg10_3 Tb9_7 3.325906 1_455
Mg10_3 Tb10_3 3.325906 1_555
Mg10_3 Tb10_7 3.325906 1_455
Mg10_3 Tb13_1 3.339815 1_555
Mg10_3 Tb13_5 3.339815 1_455
Mg10_3 Tb15_3 3.339815 1_555
Mg10_3 Tb15_7 3.339815 1_455
Mg10_4 Ni2_6 2.963622 1_545
Mg10_4 Ni5_6 2.963622 1_545
Mg10_4 Ni6_4 2.963622 1_555
Mg10_4 Ni1_4 2.963622 1_555
Mg10_4 Tb9_0 3.325906 1_555
Mg10_4 Tb9_4 3.325906 1_555
Mg10_4 Tb10_0 3.325906 1_555
Mg10_4 Tb10_4 3.325906 1_555
Mg10_4 Tb13_2 3.339815 1_545
Mg10_4 Tb13_6 3.339815 1_545
Mg10_4 Tb15_4 3.339815 1_555
Mg10_4 Tb15_0 3.339815 1_555
Mg10_5 Ni2_7 2.963622 1_545
Mg10_5 Ni5_7 2.963622 1_545
Mg10_5 Ni1_5 2.963622 1_555
Mg10_5 Ni6_5 2.963622 1_555
Mg10_5 Tb9_1 3.325906 1_555
Mg10_5 Tb9_5 3.325906 1_555
Mg10_5 Tb10_1 3.325906 1_555
Mg10_5 Tb10_5 3.325906 1_555
Mg10_5 Tb13_3 3.339815 1_545
Mg10_5 Tb13_7 3.339815 1_545
Mg10_5 Tb15_5 3.339815 1_555
Mg10_5 Tb15_1 3.339815 1_555
Mg10_6 Ni2_4 2.963622 1_555
Mg10_6 Ni5_4 2.963622 1_555
Mg10_6 Ni6_6 2.963622 1_555
Mg10_6 Ni1_6 2.963622 1_555
Mg10_6 Tb9_2 3.325906 1_555
Mg10_6 Tb9_6 3.325906 1_555
Mg10_6 Tb10_6 3.325906 1_555
Mg10_6 Tb10_2 3.325906 1_555
Mg10_6 Tb13_0 3.339815 1_555
Mg10_6 Tb13_4 3.339815 1_555
Mg10_6 Tb15_6 3.339815 1_555
Mg10_6 Tb15_2 3.339815 1_555
Mg10_7 Ni2_5 2.963622 1_555
Mg10_7 Ni5_5 2.963622 1_555
Mg10_7 Ni1_7 2.963622 1_555
Mg10_7 Ni6_7 2.963622 1_555
Mg10_7 Tb9_3 3.325906 1_555
Mg10_7 Tb9_7 3.325906 1_555
Mg10_7 Tb10_7 3.325906 1_555
Mg10_7 Tb10_3 3.325906 1_555
Mg10_7 Tb13_1 3.339815 1_555
Mg10_7 Tb13_5 3.339815 1_555
Mg10_7 Tb15_7 3.339815 1_555
Mg10_7 Tb15_3 3.339815 1_555
Ni0_0 Tb0_0 2.723451 1_555
Ni0_0 Tb0_4 2.723451 1_455
Ni0_0 Tb14_0 2.895034 1_555
Ni0_0 Tb14_4 2.895034 1_455
Ni0_0 Tb8_0 2.901922 1_555
Ni0_0 Tb8_4 2.901922 1_455
Ni0_0 Tb16_0 2.911085 1_555
Ni0_1 Tb0_1 2.723451 1_555
Ni0_1 Tb0_5 2.723451 1_455
Ni0_1 Tb14_1 2.895034 1_555
Ni0_1 Tb14_5 2.895034 1_455
Ni0_1 Tb8_1 2.901922 1_555
Ni0_1 Tb8_5 2.901922 1_455
Ni0_1 Tb16_1 2.911085 1_555
Ni0_2 Tb0_2 2.723451 1_555
Ni0_2 Tb0_6 2.723451 1_455
Ni0_2 Tb14_2 2.895034 1_555
Ni0_2 Tb14_6 2.895034 1_455
Ni0_2 Tb8_2 2.901922 1_555
Ni0_2 Tb8_6 2.901922 1_455
Ni0_2 Tb16_2 2.911085 1_555
Ni0_3 Tb0_3 2.723451 1_555
Ni0_3 Tb0_7 2.723451 1_455
Ni0_3 Tb14_3 2.895034 1_555
Ni0_3 Tb14_7 2.895034 1_455
Ni0_3 Tb8_3 2.901922 1_555
Ni0_3 Tb8_7 2.901922 1_455
Ni0_3 Tb16_3 2.911085 1_555
Ni0_4 Tb0_0 2.723451 1_555
Ni0_4 Tb0_4 2.723451 1_555
Ni0_4 Tb14_4 2.895034 1_555
Ni0_4 Tb14_0 2.895034 1_555
Ni0_4 Tb8_0 2.901922 1_555
Ni0_4 Tb8_4 2.901922 1_555
Ni0_4 Tb16_4 2.911085 1_555
Ni0_5 Tb0_1 2.723451 1_555
Ni0_5 Tb0_5 2.723451 1_555
Ni0_5 Tb14_5 2.895034 1_555
Ni0_5 Tb14_1 2.895034 1_555
Ni0_5 Tb8_5 2.901922 1_555
Ni0_5 Tb8_1 2.901922 1_555
Ni0_5 Tb16_5 2.911085 1_555
Ni0_6 Tb0_2 2.723451 1_555
Ni0_6 Tb0_6 2.723451 1_555
Ni0_6 Tb14_2 2.895034 1_555
Ni0_6 Tb14_6 2.895034 1_555
Ni0_6 Tb8_6 2.901922 1_555
Ni0_6 Tb8_2 2.901922 1_555
Ni0_6 Tb16_6 2.911085 1_555
Ni0_7 Tb0_3 2.723451 1_555
Ni0_7 Tb0_7 2.723451 1_555
Ni0_7 Tb14_3 2.895034 1_555
Ni0_7 Tb14_7 2.895034 1_555
Ni0_7 Tb8_3 2.901922 1_555
Ni0_7 Tb8_7 2.901922 1_555
Ni0_7 Tb16_7 2.911085 1_555
Ni1_0 Tb1_0 2.713225 1_555
Ni1_0 Tb1_4 2.713225 1_455
Ni1_0 Tb9_0 2.845904 1_555
Ni1_0 Tb9_4 2.845904 1_455
Ni1_0 Tb15_0 2.856633 1_555
Ni1_0 Tb15_4 2.856633 1_455
Ni1_1 Tb1_1 2.713225 1_555
Ni1_1 Tb1_5 2.713225 1_455
Ni1_1 Tb9_1 2.845904 1_555
Ni1_1 Tb9_5 2.845904 1_455
Ni1_1 Tb15_1 2.856633 1_555
Ni1_1 Tb15_5 2.856633 1_455
Ni1_2 Tb1_2 2.713225 1_555
Ni1_2 Tb1_6 2.713225 1_455
Ni1_2 Tb9_2 2.845904 1_555
Ni1_2 Tb9_6 2.845904 1_455
Ni1_2 Tb15_2 2.856633 1_555
Ni1_2 Tb15_6 2.856633 1_455
Ni1_3 Tb1_3 2.713225 1_555
Ni1_3 Tb1_7 2.713225 1_455
Ni1_3 Tb9_3 2.845904 1_555
Ni1_3 Tb9_7 2.845904 1_455
Ni1_3 Tb15_3 2.856633 1_555
Ni1_3 Tb15_7 2.856633 1_455
Ni1_4 Tb1_4 2.713225 1_555
Ni1_4 Tb1_0 2.713225 1_555
Ni1_4 Tb9_4 2.845904 1_555
Ni1_4 Tb9_0 2.845904 1_555
Ni1_4 Tb15_4 2.856633 1_555
Ni1_4 Tb15_0 2.856633 1_555
Ni1_5 Tb1_5 2.713225 1_555
Ni1_5 Tb1_1 2.713225 1_555
Ni1_5 Tb9_5 2.845904 1_555
Ni1_5 Tb9_1 2.845904 1_555
Ni1_5 Tb15_1 2.856633 1_555
Ni1_5 Tb15_5 2.856633 1_555
Ni1_6 Tb1_2 2.713225 1_555
Ni1_6 Tb1_6 2.713225 1_555
Ni1_6 Tb9_2 2.845904 1_555
Ni1_6 Tb9_6 2.845904 1_555
Ni1_6 Tb15_2 2.856633 1_555
Ni1_6 Tb15_6 2.856633 1_555
Ni1_7 Tb1_3 2.713225 1_555
Ni1_7 Tb1_7 2.713225 1_555
Ni1_7 Tb9_7 2.845904 1_555
Ni1_7 Tb9_3 2.845904 1_555
Ni1_7 Tb15_7 2.856633 1_555
Ni1_7 Tb15_3 2.856633 1_555
Ni2_0 Tb2_0 2.713225 1_555
Ni2_0 Tb2_4 2.713225 1_455
Ni2_0 Tb10_2 2.845904 1_555
Ni2_0 Tb10_6 2.845904 1_455
Ni2_0 Tb13_0 2.856633 1_555
Ni2_0 Tb13_4 2.856633 1_455
Ni2_1 Tb2_1 2.713225 1_555
Ni2_1 Tb2_5 2.713225 1_455
Ni2_1 Tb10_3 2.845904 1_555
Ni2_1 Tb10_7 2.845904 1_455
Ni2_1 Tb13_1 2.856633 1_555
Ni2_1 Tb13_5 2.856633 1_455
Ni2_2 Tb2_2 2.713225 1_555
Ni2_2 Tb2_6 2.713225 1_455
Ni2_2 Tb10_0 2.845904 1_565
Ni2_2 Tb10_4 2.845904 1_465
Ni2_2 Tb13_2 2.856633 1_555
Ni2_2 Tb13_6 2.856633 1_455
Ni2_3 Tb2_3 2.713225 1_555
Ni2_3 Tb2_7 2.713225 1_455
Ni2_3 Tb10_1 2.845904 1_565
Ni2_3 Tb10_5 2.845904 1_465
Ni2_3 Tb13_3 2.856633 1_555
Ni2_3 Tb13_7 2.856633 1_455
Ni2_4 Tb2_0 2.713225 1_555
Ni2_4 Tb2_4 2.713225 1_555
Ni2_4 Tb10_2 2.845904 1_555
Ni2_4 Tb10_6 2.845904 1_555
Ni2_4 Tb13_0 2.856633 1_555
Ni2_4 Tb13_4 2.856633 1_555
Ni2_5 Tb2_5 2.713225 1_555
Ni2_5 Tb2_1 2.713225 1_555
Ni2_5 Tb10_7 2.845904 1_555
Ni2_5 Tb10_3 2.845904 1_555
Ni2_5 Tb13_5 2.856633 1_555
Ni2_5 Tb13_1 2.856633 1_555
Ni2_6 Tb2_2 2.713225 1_555
Ni2_6 Tb2_6 2.713225 1_555
Ni2_6 Tb10_4 2.845904 1_565
Ni2_6 Tb10_0 2.845904 1_565
Ni2_6 Tb13_6 2.856633 1_555
Ni2_6 Tb13_2 2.856633 1_555
Ni2_7 Tb2_7 2.713225 1_555
Ni2_7 Tb2_3 2.713225 1_555
Ni2_7 Tb10_5 2.845904 1_565
Ni2_7 Tb10_1 2.845904 1_565
Ni2_7 Tb13_3 2.856633 1_555
Ni2_7 Tb13_7 2.856633 1_555
Ni3_0 Tb3_0 2.723451 1_555
Ni3_0 Tb3_4 2.723451 1_455
Ni3_0 Tb12_1 2.895034 1_555
Ni3_0 Tb12_5 2.895034 1_455
Ni3_0 Tb11_2 2.901922 1_555
Ni3_0 Tb11_6 2.901922 1_455
Ni3_0 Tb16_3 2.911085 1_555
Ni3_1 Tb3_1 2.723451 1_555
Ni3_1 Tb3_5 2.723451 1_455
Ni3_1 Tb12_0 2.895034 1_556
Ni3_1 Tb12_4 2.895034 1_456
Ni3_1 Tb11_3 2.901922 1_555
Ni3_1 Tb11_7 2.901922 1_455
Ni3_1 Tb16_2 2.911085 1_556
Ni3_2 Tb3_2 2.723451 1_555
Ni3_2 Tb3_6 2.723451 1_455
Ni3_2 Tb12_3 2.895034 1_555
Ni3_2 Tb12_7 2.895034 1_455
Ni3_2 Tb11_0 2.901922 1_565
Ni3_2 Tb11_4 2.901922 1_465
Ni3_2 Tb16_1 2.911085 1_565
Ni3_3 Tb3_3 2.723451 1_555
Ni3_3 Tb3_7 2.723451 1_455
Ni3_3 Tb12_2 2.895034 1_556
Ni3_3 Tb12_6 2.895034 1_456
Ni3_3 Tb11_1 2.901922 1_565
Ni3_3 Tb11_5 2.901922 1_465
Ni3_3 Tb16_0 2.911085 1_566
Ni3_4 Tb3_4 2.723451 1_555
Ni3_4 Tb3_0 2.723451 1_555
Ni3_4 Tb12_1 2.895034 1_555
Ni3_4 Tb12_5 2.895034 1_555
Ni3_4 Tb11_2 2.901922 1_555
Ni3_4 Tb11_6 2.901922 1_555
Ni3_4 Tb16_7 2.911085 1_555
Ni3_5 Tb3_5 2.723451 1_555
Ni3_5 Tb3_1 2.723451 1_555
Ni3_5 Tb12_0 2.895034 1_556
Ni3_5 Tb12_4 2.895034 1_556
Ni3_5 Tb11_3 2.901922 1_555
Ni3_5 Tb11_7 2.901922 1_555
Ni3_5 Tb16_6 2.911085 1_556
Ni3_6 Tb3_2 2.723451 1_555
Ni3_6 Tb3_6 2.723451 1_555
Ni3_6 Tb12_3 2.895034 1_555
Ni3_6 Tb12_7 2.895034 1_555
Ni3_6 Tb11_0 2.901922 1_565
Ni3_6 Tb11_4 2.901922 1_565
Ni3_6 Tb16_5 2.911085 1_565
Ni3_7 Tb3_7 2.723451 1_555
Ni3_7 Tb3_3 2.723451 1_555
Ni3_7 Tb12_2 2.895034 1_556
Ni3_7 Tb12_6 2.895034 1_556
Ni3_7 Tb11_1 2.901922 1_565
Ni3_7 Tb11_5 2.901922 1_565
Ni3_7 Tb16_4 2.911085 1_566
Ni4_0 Tb4_0 2.723451 1_555
Ni4_0 Tb4_4 2.723451 1_455
Ni4_0 Tb12_0 2.895034 1_555
Ni4_0 Tb12_4 2.895034 1_455
Ni4_0 Tb8_2 2.901922 1_555
Ni4_0 Tb8_6 2.901922 1_455
Ni4_0 Tb16_2 2.911085 1_555
Ni4_1 Tb4_1 2.723451 1_555
Ni4_1 Tb4_5 2.723451 1_455
Ni4_1 Tb12_1 2.895034 1_555
Ni4_1 Tb12_5 2.895034 1_455
Ni4_1 Tb8_3 2.901922 1_555
Ni4_1 Tb8_7 2.901922 1_455
Ni4_1 Tb16_3 2.911085 1_555
Ni4_2 Tb4_2 2.723451 1_555
Ni4_2 Tb4_6 2.723451 1_455
Ni4_2 Tb12_2 2.895034 1_555
Ni4_2 Tb12_6 2.895034 1_455
Ni4_2 Tb8_0 2.901922 1_565
Ni4_2 Tb8_4 2.901922 1_465
Ni4_2 Tb16_0 2.911085 1_565
Ni4_3 Tb4_3 2.723451 1_555
Ni4_3 Tb4_7 2.723451 1_455
Ni4_3 Tb12_3 2.895034 1_555
Ni4_3 Tb12_7 2.895034 1_455
Ni4_3 Tb8_1 2.901922 1_565
Ni4_3 Tb8_5 2.901922 1_465
Ni4_3 Tb16_1 2.911085 1_565
Ni4_4 Tb4_0 2.723451 1_555
Ni4_4 Tb4_4 2.723451 1_555
Ni4_4 Tb12_0 2.895034 1_555
Ni4_4 Tb12_4 2.895034 1_555
Ni4_4 Tb8_6 2.901922 1_555
Ni4_4 Tb8_2 2.901922 1_555
Ni4_4 Tb16_6 2.911085 1_555
Ni4_5 Tb4_5 2.723451 1_555
Ni4_5 Tb4_1 2.723451 1_555
Ni4_5 Tb12_1 2.895034 1_555
Ni4_5 Tb12_5 2.895034 1_555
Ni4_5 Tb8_3 2.901922 1_555
Ni4_5 Tb8_7 2.901922 1_555
Ni4_5 Tb16_7 2.911085 1_555
Ni4_6 Tb4_2 2.723451 1_555
Ni4_6 Tb4_6 2.723451 1_555
Ni4_6 Tb12_6 2.895034 1_555
Ni4_6 Tb12_2 2.895034 1_555
Ni4_6 Tb8_4 2.901922 1_565
Ni4_6 Tb8_0 2.901922 1_565
Ni4_6 Tb16_4 2.911085 1_565
Ni4_7 Tb4_3 2.723451 1_555
Ni4_7 Tb4_7 2.723451 1_555
Ni4_7 Tb12_3 2.895034 1_555
Ni4_7 Tb12_7 2.895034 1_555
Ni4_7 Tb8_1 2.901922 1_565
Ni4_7 Tb8_5 2.901922 1_565
Ni4_7 Tb16_5 2.911085 1_565
Ni5_0 Tb5_0 2.713225 1_555
Ni5_0 Tb5_4 2.713225 1_455
Ni5_0 Tb9_2 2.845904 1_555
Ni5_0 Tb9_6 2.845904 1_455
Ni5_0 Tb13_0 2.856633 1_555
Ni5_0 Tb13_4 2.856633 1_455
Ni5_1 Tb5_1 2.713225 1_555
Ni5_1 Tb5_5 2.713225 1_455
Ni5_1 Tb9_3 2.845904 1_555
Ni5_1 Tb9_7 2.845904 1_455
Ni5_1 Tb13_1 2.856633 1_555
Ni5_1 Tb13_5 2.856633 1_455
Ni5_2 Tb5_2 2.713225 1_555
Ni5_2 Tb5_6 2.713225 1_455
Ni5_2 Tb9_0 2.845904 1_565
Ni5_2 Tb9_4 2.845904 1_465
Ni5_2 Tb13_2 2.856633 1_555
Ni5_2 Tb13_6 2.856633 1_455
Ni5_3 Tb5_3 2.713225 1_555
Ni5_3 Tb5_7 2.713225 1_455
Ni5_3 Tb9_1 2.845904 1_565
Ni5_3 Tb9_5 2.845904 1_465
Ni5_3 Tb13_3 2.856633 1_555
Ni5_3 Tb13_7 2.856633 1_455
Ni5_4 Tb5_4 2.713225 1_555
Ni5_4 Tb5_0 2.713225 1_555
Ni5_4 Tb9_2 2.845904 1_555
Ni5_4 Tb9_6 2.845904 1_555
Ni5_4 Tb13_0 2.856633 1_555
Ni5_4 Tb13_4 2.856633 1_555
Ni5_5 Tb5_1 2.713225 1_555
Ni5_5 Tb5_5 2.713225 1_555
Ni5_5 Tb9_3 2.845904 1_555
Ni5_5 Tb9_7 2.845904 1_555
Ni5_5 Tb13_5 2.856633 1_555
Ni5_5 Tb13_1 2.856633 1_555
Ni5_6 Tb5_2 2.713225 1_555
Ni5_6 Tb5_6 2.713225 1_555
Ni5_6 Tb9_0 2.845904 1_565
Ni5_6 Tb9_4 2.845904 1_565
Ni5_6 Tb13_2 2.856633 1_555
Ni5_6 Tb13_6 2.856633 1_555
Ni5_7 Tb5_7 2.713225 1_555
Ni5_7 Tb5_3 2.713225 1_555
Ni5_7 Tb9_1 2.845904 1_565
Ni5_7 Tb9_5 2.845904 1_565
Ni5_7 Tb13_3 2.856633 1_555
Ni5_7 Tb13_7 2.856633 1_555
Ni6_0 Tb6_0 2.713225 1_555
Ni6_0 Tb6_4 2.713225 1_455
Ni6_0 Tb10_0 2.845904 1_555
Ni6_0 Tb10_4 2.845904 1_455
Ni6_0 Tb15_0 2.856633 1_555
Ni6_0 Tb15_4 2.856633 1_455
Ni6_1 Tb6_1 2.713225 1_555
Ni6_1 Tb6_5 2.713225 1_455
Ni6_1 Tb10_1 2.845904 1_555
Ni6_1 Tb10_5 2.845904 1_455
Ni6_1 Tb15_1 2.856633 1_555
Ni6_1 Tb15_5 2.856633 1_455
Ni6_2 Tb6_2 2.713225 1_555
Ni6_2 Tb6_6 2.713225 1_455
Ni6_2 Tb10_2 2.845904 1_555
Ni6_2 Tb10_6 2.845904 1_455
Ni6_2 Tb15_2 2.856633 1_555
Ni6_2 Tb15_6 2.856633 1_455
Ni6_3 Tb6_3 2.713225 1_555
Ni6_3 Tb6_7 2.713225 1_455
Ni6_3 Tb10_3 2.845904 1_555
Ni6_3 Tb10_7 2.845904 1_455
Ni6_3 Tb15_3 2.856633 1_555
Ni6_3 Tb15_7 2.856633 1_455
Ni6_4 Tb6_0 2.713225 1_555
Ni6_4 Tb6_4 2.713225 1_555
Ni6_4 Tb10_0 2.845904 1_555
Ni6_4 Tb10_4 2.845904 1_555
Ni6_4 Tb15_0 2.856633 1_555
Ni6_4 Tb15_4 2.856633 1_555
Ni6_5 Tb6_1 2.713225 1_555
Ni6_5 Tb6_5 2.713225 1_555
Ni6_5 Tb10_5 2.845904 1_555
Ni6_5 Tb10_1 2.845904 1_555
Ni6_5 Tb15_1 2.856633 1_555
Ni6_5 Tb15_5 2.856633 1_555
Ni6_6 Tb6_6 2.713225 1_555
Ni6_6 Tb6_2 2.713225 1_555
Ni6_6 Tb10_2 2.845904 1_555
Ni6_6 Tb10_6 2.845904 1_555
Ni6_6 Tb15_6 2.856633 1_555
Ni6_6 Tb15_2 2.856633 1_555
Ni6_7 Tb6_3 2.713225 1_555
Ni6_7 Tb6_7 2.713225 1_555
Ni6_7 Tb10_7 2.845904 1_555
Ni6_7 Tb10_3 2.845904 1_555
Ni6_7 Tb15_7 2.856633 1_555
Ni6_7 Tb15_3 2.856633 1_555
Ni7_0 Tb7_0 2.723451 1_555
Ni7_0 Tb7_4 2.723451 1_455
Ni7_0 Tb14_1 2.895034 1_555
Ni7_0 Tb14_5 2.895034 1_455
Ni7_0 Tb11_0 2.901922 1_555
Ni7_0 Tb11_4 2.901922 1_455
Ni7_0 Tb16_1 2.911085 1_555
Ni7_1 Tb7_1 2.723451 1_555
Ni7_1 Tb7_5 2.723451 1_455
Ni7_1 Tb14_0 2.895034 1_556
Ni7_1 Tb14_4 2.895034 1_456
Ni7_1 Tb11_1 2.901922 1_555
Ni7_1 Tb11_5 2.901922 1_455
Ni7_1 Tb16_0 2.911085 1_556
Ni7_2 Tb7_2 2.723451 1_555
Ni7_2 Tb7_6 2.723451 1_455
Ni7_2 Tb14_3 2.895034 1_555
Ni7_2 Tb14_7 2.895034 1_455
Ni7_2 Tb11_2 2.901922 1_555
Ni7_2 Tb11_6 2.901922 1_455
Ni7_2 Tb16_3 2.911085 1_555
Ni7_3 Tb7_3 2.723451 1_555
Ni7_3 Tb7_7 2.723451 1_455
Ni7_3 Tb14_2 2.895034 1_556
Ni7_3 Tb14_6 2.895034 1_456
Ni7_3 Tb11_3 2.901922 1_555
Ni7_3 Tb11_7 2.901922 1_455
Ni7_3 Tb16_2 2.911085 1_556
Ni7_4 Tb7_4 2.723451 1_555
Ni7_4 Tb7_0 2.723451 1_555
Ni7_4 Tb14_5 2.895034 1_555
Ni7_4 Tb14_1 2.895034 1_555
Ni7_4 Tb11_4 2.901922 1_555
Ni7_4 Tb11_0 2.901922 1_555
Ni7_4 Tb16_5 2.911085 1_555
Ni7_5 Tb7_5 2.723451 1_555
Ni7_5 Tb7_1 2.723451 1_555
Ni7_5 Tb14_4 2.895034 1_556
Ni7_5 Tb14_0 2.895034 1_556
Ni7_5 Tb11_1 2.901922 1_555
Ni7_5 Tb11_5 2.901922 1_555
Ni7_5 Tb16_4 2.911085 1_556
Ni7_6 Tb7_6 2.723451 1_555
Ni7_6 Tb7_2 2.723451 1_555
Ni7_6 Tb14_3 2.895034 1_555
Ni7_6 Tb14_7 2.895034 1_555
Ni7_6 Tb11_2 2.901922 1_555
Ni7_6 Tb11_6 2.901922 1_555
Ni7_6 Tb16_7 2.911085 1_555
Ni7_7 Tb7_7 2.723451 1_555
Ni7_7 Tb7_3 2.723451 1_555
Ni7_7 Tb14_6 2.895034 1_556
Ni7_7 Tb14_2 2.895034 1_556
Ni7_7 Tb11_3 2.901922 1_555
Ni7_7 Tb11_7 2.901922 1_555
Ni7_7 Tb16_6 2.911085 1_556
