# generated using pymatgen
data_Zn15B6Rh17
_symmetry_space_group_name_H-M   'P 1'
_cell_length_a   5.71105204
_cell_length_b   22.14998746
_cell_length_c   29.83179480
_cell_angle_alpha   90.00000000
_cell_angle_beta   90.00000000
_cell_angle_gamma   90.00000000
_symmetry_Int_Tables_number   1
_chemical_formula_structural   Zn15B6Rh17
_chemical_formula_sum   'Zn120 B48 Rh136'
_cell_volume   3773.71401952
_cell_formula_units_Z   8
loop_
 _symmetry_equiv_pos_site_id
 _symmetry_equiv_pos_as_xyz
  1  'x, y, z'
loop_
 _atom_site_type_symbol
 _atom_site_label
 _atom_site_symmetry_multiplicity
 _atom_site_fract_x
 _atom_site_fract_y
 _atom_site_fract_z
 _atom_site_occupancy
  Zn  Zn0_0  1  0.25000000  0.25000000  0.17660883  1
  Zn  Zn0_1  1  0.25000000  0.25000000  0.67660884  1
  Zn  Zn0_2  1  0.25000000  0.75000000  0.17660883  1
  Zn  Zn0_3  1  0.25000000  0.75000000  0.67660884  1
  Zn  Zn0_4  1  0.75000000  0.25000000  0.17660883  1
  Zn  Zn0_5  1  0.75000000  0.25000000  0.67660884  1
  Zn  Zn0_6  1  0.75000000  0.75000000  0.17660883  1
  Zn  Zn0_7  1  0.75000000  0.75000000  0.67660884  1
  Zn  Zn1_0  1  0.25000000  0.00000000  0.32468171  1
  Zn  Zn1_1  1  0.25000000  0.00000000  0.82468171  1
  Zn  Zn1_2  1  0.25000000  0.50000000  0.32468171  1
  Zn  Zn1_3  1  0.25000000  0.50000000  0.82468171  1
  Zn  Zn1_4  1  0.75000000  0.00000000  0.32468171  1
  Zn  Zn1_5  1  0.75000000  0.00000000  0.82468171  1
  Zn  Zn1_6  1  0.75000000  0.50000000  0.32468171  1
  Zn  Zn1_7  1  0.75000000  0.50000000  0.82468171  1
  Zn  Zn2_0  1  0.25000000  0.19183120  0.00137776  1
  Zn  Zn2_1  1  0.25000000  0.19183120  0.50137776  1
  Zn  Zn2_2  1  0.25000000  0.69183120  0.00137776  1
  Zn  Zn2_3  1  0.25000000  0.69183120  0.50137776  1
  Zn  Zn2_4  1  0.75000000  0.19183120  0.00137776  1
  Zn  Zn2_5  1  0.75000000  0.19183120  0.50137776  1
  Zn  Zn2_6  1  0.75000000  0.69183120  0.00137776  1
  Zn  Zn2_7  1  0.75000000  0.69183120  0.50137776  1
  Zn  Zn3_0  1  0.25000000  0.05827791  0.49628541  1
  Zn  Zn3_1  1  0.25000000  0.05827791  0.99628541  1
  Zn  Zn3_2  1  0.25000000  0.55827792  0.49628541  1
  Zn  Zn3_3  1  0.25000000  0.55827792  0.99628541  1
  Zn  Zn3_4  1  0.75000000  0.05827791  0.49628541  1
  Zn  Zn3_5  1  0.75000000  0.05827791  0.99628541  1
  Zn  Zn3_6  1  0.75000000  0.55827792  0.49628541  1
  Zn  Zn3_7  1  0.75000000  0.55827792  0.99628541  1
  Zn  Zn4_0  1  0.25000000  0.30816881  0.00137776  1
  Zn  Zn4_1  1  0.25000000  0.30816881  0.50137776  1
  Zn  Zn4_2  1  0.25000000  0.80816880  0.00137776  1
  Zn  Zn4_3  1  0.25000000  0.80816880  0.50137776  1
  Zn  Zn4_4  1  0.75000000  0.30816881  0.00137776  1
  Zn  Zn4_5  1  0.75000000  0.30816881  0.50137776  1
  Zn  Zn4_6  1  0.75000000  0.80816880  0.00137776  1
  Zn  Zn4_7  1  0.75000000  0.80816880  0.50137776  1
  Zn  Zn5_0  1  0.25000000  0.44172209  0.49628541  1
  Zn  Zn5_1  1  0.25000000  0.44172209  0.99628541  1
  Zn  Zn5_2  1  0.25000000  0.94172209  0.49628541  1
  Zn  Zn5_3  1  0.25000000  0.94172209  0.99628541  1
  Zn  Zn5_4  1  0.75000000  0.44172209  0.49628541  1
  Zn  Zn5_5  1  0.75000000  0.44172209  0.99628541  1
  Zn  Zn5_6  1  0.75000000  0.94172209  0.49628541  1
  Zn  Zn5_7  1  0.75000000  0.94172209  0.99628541  1
  Zn  Zn6_0  1  0.25000000  0.18757305  0.38510859  1
  Zn  Zn6_1  1  0.25000000  0.18757305  0.88510859  1
  Zn  Zn6_2  1  0.25000000  0.68757305  0.38510859  1
  Zn  Zn6_3  1  0.25000000  0.68757305  0.88510859  1
  Zn  Zn6_4  1  0.75000000  0.18757305  0.38510859  1
  Zn  Zn6_5  1  0.75000000  0.18757305  0.88510859  1
  Zn  Zn6_6  1  0.75000000  0.68757305  0.38510859  1
  Zn  Zn6_7  1  0.75000000  0.68757305  0.88510859  1
  Zn  Zn7_0  1  0.25000000  0.06614267  0.11832841  1
  Zn  Zn7_1  1  0.25000000  0.06614267  0.61832841  1
  Zn  Zn7_2  1  0.25000000  0.56614267  0.11832841  1
  Zn  Zn7_3  1  0.25000000  0.56614267  0.61832841  1
  Zn  Zn7_4  1  0.75000000  0.06614267  0.11832841  1
  Zn  Zn7_5  1  0.75000000  0.06614267  0.61832841  1
  Zn  Zn7_6  1  0.75000000  0.56614267  0.11832841  1
  Zn  Zn7_7  1  0.75000000  0.56614267  0.61832841  1
  Zn  Zn8_0  1  0.25000000  0.31242695  0.38510859  1
  Zn  Zn8_1  1  0.25000000  0.31242695  0.88510859  1
  Zn  Zn8_2  1  0.25000000  0.81242695  0.38510859  1
  Zn  Zn8_3  1  0.25000000  0.81242695  0.88510859  1
  Zn  Zn8_4  1  0.75000000  0.31242695  0.38510859  1
  Zn  Zn8_5  1  0.75000000  0.31242695  0.88510859  1
  Zn  Zn8_6  1  0.75000000  0.81242695  0.38510859  1
  Zn  Zn8_7  1  0.75000000  0.81242695  0.88510859  1
  Zn  Zn9_0  1  0.25000000  0.43385734  0.11832841  1
  Zn  Zn9_1  1  0.25000000  0.43385734  0.61832841  1
  Zn  Zn9_2  1  0.25000000  0.93385734  0.11832841  1
  Zn  Zn9_3  1  0.25000000  0.93385734  0.61832841  1
  Zn  Zn9_4  1  0.75000000  0.43385734  0.11832841  1
  Zn  Zn9_5  1  0.75000000  0.43385734  0.61832841  1
  Zn  Zn9_6  1  0.75000000  0.93385734  0.11832841  1
  Zn  Zn9_7  1  0.75000000  0.93385734  0.61832841  1
  Zn  Zn10_0  1  0.25000000  0.14888276  0.30191911  1
  Zn  Zn10_1  1  0.25000000  0.14888276  0.80191911  1
  Zn  Zn10_2  1  0.25000000  0.64888276  0.30191911  1
  Zn  Zn10_3  1  0.25000000  0.64888276  0.80191911  1
  Zn  Zn10_4  1  0.75000000  0.14888276  0.30191911  1
  Zn  Zn10_5  1  0.75000000  0.14888276  0.80191911  1
  Zn  Zn10_6  1  0.75000000  0.64888276  0.30191911  1
  Zn  Zn10_7  1  0.75000000  0.64888276  0.80191911  1
  Zn  Zn11_0  1  0.25000000  0.10242695  0.19872652  1
  Zn  Zn11_1  1  0.25000000  0.10242695  0.69872652  1
  Zn  Zn11_2  1  0.25000000  0.60242695  0.19872652  1
  Zn  Zn11_3  1  0.25000000  0.60242695  0.69872652  1
  Zn  Zn11_4  1  0.75000000  0.10242695  0.19872652  1
  Zn  Zn11_5  1  0.75000000  0.10242695  0.69872652  1
  Zn  Zn11_6  1  0.75000000  0.60242695  0.19872652  1
  Zn  Zn11_7  1  0.75000000  0.60242695  0.69872652  1
  Zn  Zn12_0  1  0.25000000  0.35111725  0.30191911  1
  Zn  Zn12_1  1  0.25000000  0.35111725  0.80191911  1
  Zn  Zn12_2  1  0.25000000  0.85111725  0.30191911  1
  Zn  Zn12_3  1  0.25000000  0.85111725  0.80191911  1
  Zn  Zn12_4  1  0.75000000  0.35111725  0.30191911  1
  Zn  Zn12_5  1  0.75000000  0.35111725  0.80191911  1
  Zn  Zn12_6  1  0.75000000  0.85111725  0.30191911  1
  Zn  Zn12_7  1  0.75000000  0.85111725  0.80191911  1
  Zn  Zn13_0  1  0.25000000  0.39757305  0.19872652  1
  Zn  Zn13_1  1  0.25000000  0.39757305  0.69872652  1
  Zn  Zn13_2  1  0.25000000  0.89757305  0.19872652  1
  Zn  Zn13_3  1  0.25000000  0.89757305  0.69872652  1
  Zn  Zn13_4  1  0.75000000  0.39757305  0.19872652  1
  Zn  Zn13_5  1  0.75000000  0.39757305  0.69872652  1
  Zn  Zn13_6  1  0.75000000  0.89757305  0.19872652  1
  Zn  Zn13_7  1  0.75000000  0.89757305  0.69872652  1
  Zn  Zn14_0  1  0.00000000  0.00000000  0.06067348  1
  Zn  Zn14_1  1  0.00000000  0.00000000  0.56067348  1
  Zn  Zn14_2  1  0.00000000  0.50000000  0.06067348  1
  Zn  Zn14_3  1  0.00000000  0.50000000  0.56067348  1
  Zn  Zn14_4  1  0.50000000  0.00000000  0.06067348  1
  Zn  Zn14_5  1  0.50000000  0.00000000  0.56067348  1
  Zn  Zn14_6  1  0.50000000  0.50000000  0.06067348  1
  Zn  Zn14_7  1  0.50000000  0.50000000  0.56067348  1
  B  B0_0  1  0.25000000  0.25000000  0.26597895  1
  B  B0_1  1  0.25000000  0.25000000  0.76597895  1
  B  B0_2  1  0.25000000  0.75000000  0.26597895  1
  B  B0_3  1  0.25000000  0.75000000  0.76597895  1
  B  B0_4  1  0.75000000  0.25000000  0.26597895  1
  B  B0_5  1  0.75000000  0.25000000  0.76597895  1
  B  B0_6  1  0.75000000  0.75000000  0.26597895  1
  B  B0_7  1  0.75000000  0.75000000  0.76597895  1
  B  B1_0  1  0.25000000  0.00000000  0.23406710  1
  B  B1_1  1  0.25000000  0.00000000  0.73406711  1
  B  B1_2  1  0.25000000  0.50000000  0.23406710  1
  B  B1_3  1  0.25000000  0.50000000  0.73406711  1
  B  B1_4  1  0.75000000  0.00000000  0.23406710  1
  B  B1_5  1  0.75000000  0.00000000  0.73406711  1
  B  B1_6  1  0.75000000  0.50000000  0.23406710  1
  B  B1_7  1  0.75000000  0.50000000  0.73406711  1
  B  B2_0  1  0.25000000  0.07126736  0.40995979  1
  B  B2_1  1  0.25000000  0.07126736  0.90995979  1
  B  B2_2  1  0.25000000  0.57126736  0.40995979  1
  B  B2_3  1  0.25000000  0.57126736  0.90995979  1
  B  B2_4  1  0.75000000  0.07126736  0.40995979  1
  B  B2_5  1  0.75000000  0.07126736  0.90995979  1
  B  B2_6  1  0.75000000  0.57126736  0.40995979  1
  B  B2_7  1  0.75000000  0.57126736  0.90995979  1
  B  B3_0  1  0.25000000  0.17822756  0.08865918  1
  B  B3_1  1  0.25000000  0.17822756  0.58865918  1
  B  B3_2  1  0.25000000  0.67822756  0.08865918  1
  B  B3_3  1  0.25000000  0.67822756  0.58865918  1
  B  B3_4  1  0.75000000  0.17822756  0.08865918  1
  B  B3_5  1  0.75000000  0.17822756  0.58865918  1
  B  B3_6  1  0.75000000  0.67822756  0.08865918  1
  B  B3_7  1  0.75000000  0.67822756  0.58865918  1
  B  B4_0  1  0.25000000  0.42873265  0.40995979  1
  B  B4_1  1  0.25000000  0.42873265  0.90995979  1
  B  B4_2  1  0.25000000  0.92873265  0.40995979  1
  B  B4_3  1  0.25000000  0.92873265  0.90995979  1
  B  B4_4  1  0.75000000  0.42873265  0.40995979  1
  B  B4_5  1  0.75000000  0.42873265  0.90995979  1
  B  B4_6  1  0.75000000  0.92873265  0.40995979  1
  B  B4_7  1  0.75000000  0.92873265  0.90995979  1
  B  B5_0  1  0.25000000  0.32177245  0.08865918  1
  B  B5_1  1  0.25000000  0.32177245  0.58865918  1
  B  B5_2  1  0.25000000  0.82177245  0.08865918  1
  B  B5_3  1  0.25000000  0.82177245  0.58865918  1
  B  B5_4  1  0.75000000  0.32177245  0.08865918  1
  B  B5_5  1  0.75000000  0.32177245  0.58865918  1
  B  B5_6  1  0.75000000  0.82177245  0.08865918  1
  B  B5_7  1  0.75000000  0.82177245  0.58865918  1
  Rh  Rh0_0  1  0.00000000  0.12491073  0.44548377  1
  Rh  Rh0_1  1  0.00000000  0.12491073  0.94548377  1
  Rh  Rh0_2  1  0.00000000  0.62491073  0.44548377  1
  Rh  Rh0_3  1  0.00000000  0.62491073  0.94548377  1
  Rh  Rh0_4  1  0.50000000  0.12491073  0.44548377  1
  Rh  Rh0_5  1  0.50000000  0.12491073  0.94548377  1
  Rh  Rh0_6  1  0.50000000  0.62491073  0.44548377  1
  Rh  Rh0_7  1  0.50000000  0.62491073  0.94548377  1
  Rh  Rh1_0  1  0.00000000  0.12050983  0.05379686  1
  Rh  Rh1_1  1  0.00000000  0.12050983  0.55379686  1
  Rh  Rh1_2  1  0.00000000  0.62050983  0.05379686  1
  Rh  Rh1_3  1  0.00000000  0.62050983  0.55379686  1
  Rh  Rh1_4  1  0.50000000  0.12050983  0.05379686  1
  Rh  Rh1_5  1  0.50000000  0.12050983  0.55379686  1
  Rh  Rh1_6  1  0.50000000  0.62050983  0.05379686  1
  Rh  Rh1_7  1  0.50000000  0.62050983  0.55379686  1
  Rh  Rh2_0  1  0.00000000  0.37508927  0.44548377  1
  Rh  Rh2_1  1  0.00000000  0.37508927  0.94548377  1
  Rh  Rh2_2  1  0.00000000  0.87508927  0.44548377  1
  Rh  Rh2_3  1  0.00000000  0.87508927  0.94548377  1
  Rh  Rh2_4  1  0.50000000  0.37508927  0.44548377  1
  Rh  Rh2_5  1  0.50000000  0.37508927  0.94548377  1
  Rh  Rh2_6  1  0.50000000  0.87508927  0.44548377  1
  Rh  Rh2_7  1  0.50000000  0.87508927  0.94548377  1
  Rh  Rh3_0  1  0.00000000  0.37949017  0.05379686  1
  Rh  Rh3_1  1  0.00000000  0.37949017  0.55379686  1
  Rh  Rh3_2  1  0.00000000  0.87949017  0.05379686  1
  Rh  Rh3_3  1  0.00000000  0.87949017  0.55379686  1
  Rh  Rh3_4  1  0.50000000  0.37949017  0.05379686  1
  Rh  Rh3_5  1  0.50000000  0.37949017  0.55379686  1
  Rh  Rh3_6  1  0.50000000  0.87949017  0.05379686  1
  Rh  Rh3_7  1  0.50000000  0.87949017  0.55379686  1
  Rh  Rh4_0  1  0.00000000  0.25000000  0.32160277  1
  Rh  Rh4_1  1  0.00000000  0.25000000  0.82160277  1
  Rh  Rh4_2  1  0.00000000  0.75000000  0.32160277  1
  Rh  Rh4_3  1  0.00000000  0.75000000  0.82160277  1
  Rh  Rh4_4  1  0.50000000  0.25000000  0.32160277  1
  Rh  Rh4_5  1  0.50000000  0.25000000  0.82160277  1
  Rh  Rh4_6  1  0.50000000  0.75000000  0.32160277  1
  Rh  Rh4_7  1  0.50000000  0.75000000  0.82160277  1
  Rh  Rh5_0  1  0.00000000  0.00000000  0.17780108  1
  Rh  Rh5_1  1  0.00000000  0.00000000  0.67780108  1
  Rh  Rh5_2  1  0.00000000  0.50000000  0.17780108  1
  Rh  Rh5_3  1  0.00000000  0.50000000  0.67780108  1
  Rh  Rh5_4  1  0.50000000  0.00000000  0.17780108  1
  Rh  Rh5_5  1  0.50000000  0.00000000  0.67780108  1
  Rh  Rh5_6  1  0.50000000  0.50000000  0.17780108  1
  Rh  Rh5_7  1  0.50000000  0.50000000  0.67780108  1
  Rh  Rh6_0  1  0.00000000  0.08676703  0.35839309  1
  Rh  Rh6_1  1  0.00000000  0.08676703  0.85839309  1
  Rh  Rh6_2  1  0.00000000  0.58676703  0.35839309  1
  Rh  Rh6_3  1  0.00000000  0.58676703  0.85839309  1
  Rh  Rh6_4  1  0.50000000  0.08676703  0.35839309  1
  Rh  Rh6_5  1  0.50000000  0.08676703  0.85839309  1
  Rh  Rh6_6  1  0.50000000  0.58676703  0.35839309  1
  Rh  Rh6_7  1  0.50000000  0.58676703  0.85839309  1
  Rh  Rh7_0  1  0.00000000  0.16551704  0.14067427  1
  Rh  Rh7_1  1  0.00000000  0.16551704  0.64067427  1
  Rh  Rh7_2  1  0.00000000  0.66551704  0.14067427  1
  Rh  Rh7_3  1  0.00000000  0.66551704  0.64067427  1
  Rh  Rh7_4  1  0.50000000  0.16551704  0.14067427  1
  Rh  Rh7_5  1  0.50000000  0.16551704  0.64067427  1
  Rh  Rh7_6  1  0.50000000  0.66551704  0.14067427  1
  Rh  Rh7_7  1  0.50000000  0.66551704  0.64067427  1
  Rh  Rh8_0  1  0.00000000  0.41323297  0.35839309  1
  Rh  Rh8_1  1  0.00000000  0.41323297  0.85839309  1
  Rh  Rh8_2  1  0.00000000  0.91323297  0.35839309  1
  Rh  Rh8_3  1  0.00000000  0.91323297  0.85839309  1
  Rh  Rh8_4  1  0.50000000  0.41323297  0.35839309  1
  Rh  Rh8_5  1  0.50000000  0.41323297  0.85839309  1
  Rh  Rh8_6  1  0.50000000  0.91323297  0.35839309  1
  Rh  Rh8_7  1  0.50000000  0.91323297  0.85839309  1
  Rh  Rh9_0  1  0.00000000  0.33448297  0.14067427  1
  Rh  Rh9_1  1  0.00000000  0.33448297  0.64067427  1
  Rh  Rh9_2  1  0.00000000  0.83448297  0.14067427  1
  Rh  Rh9_3  1  0.00000000  0.83448297  0.64067427  1
  Rh  Rh9_4  1  0.50000000  0.33448297  0.14067427  1
  Rh  Rh9_5  1  0.50000000  0.33448297  0.64067427  1
  Rh  Rh9_6  1  0.50000000  0.83448297  0.14067427  1
  Rh  Rh9_7  1  0.50000000  0.83448297  0.64067427  1
  Rh  Rh10_0  1  0.00000000  0.25000000  0.06691516  1
  Rh  Rh10_1  1  0.00000000  0.25000000  0.56691516  1
  Rh  Rh10_2  1  0.00000000  0.75000000  0.06691516  1
  Rh  Rh10_3  1  0.00000000  0.75000000  0.56691516  1
  Rh  Rh10_4  1  0.50000000  0.25000000  0.06691516  1
  Rh  Rh10_5  1  0.50000000  0.25000000  0.56691516  1
  Rh  Rh10_6  1  0.50000000  0.75000000  0.06691516  1
  Rh  Rh10_7  1  0.50000000  0.75000000  0.56691516  1
  Rh  Rh11_0  1  0.00000000  0.00000000  0.43205786  1
  Rh  Rh11_1  1  0.00000000  0.00000000  0.93205786  1
  Rh  Rh11_2  1  0.00000000  0.50000000  0.43205786  1
  Rh  Rh11_3  1  0.00000000  0.50000000  0.93205786  1
  Rh  Rh11_4  1  0.50000000  0.00000000  0.43205786  1
  Rh  Rh11_5  1  0.50000000  0.00000000  0.93205786  1
  Rh  Rh11_6  1  0.50000000  0.50000000  0.43205786  1
  Rh  Rh11_7  1  0.50000000  0.50000000  0.93205786  1
  Rh  Rh12_0  1  0.00000000  0.06139480  0.26410509  1
  Rh  Rh12_1  1  0.00000000  0.06139480  0.76410509  1
  Rh  Rh12_2  1  0.00000000  0.56139480  0.26410509  1
  Rh  Rh12_3  1  0.00000000  0.56139480  0.76410509  1
  Rh  Rh12_4  1  0.50000000  0.06139480  0.26410509  1
  Rh  Rh12_5  1  0.50000000  0.06139480  0.76410509  1
  Rh  Rh12_6  1  0.50000000  0.56139480  0.26410509  1
  Rh  Rh12_7  1  0.50000000  0.56139480  0.76410509  1
  Rh  Rh13_0  1  0.00000000  0.18840406  0.23606452  1
  Rh  Rh13_1  1  0.00000000  0.18840406  0.73606452  1
  Rh  Rh13_2  1  0.00000000  0.68840406  0.23606452  1
  Rh  Rh13_3  1  0.00000000  0.68840406  0.73606452  1
  Rh  Rh13_4  1  0.50000000  0.18840406  0.23606452  1
  Rh  Rh13_5  1  0.50000000  0.18840406  0.73606452  1
  Rh  Rh13_6  1  0.50000000  0.68840406  0.23606452  1
  Rh  Rh13_7  1  0.50000000  0.68840406  0.73606452  1
  Rh  Rh14_0  1  0.00000000  0.43860520  0.26410509  1
  Rh  Rh14_1  1  0.00000000  0.43860520  0.76410509  1
  Rh  Rh14_2  1  0.00000000  0.93860521  0.26410509  1
  Rh  Rh14_3  1  0.00000000  0.93860521  0.76410509  1
  Rh  Rh14_4  1  0.50000000  0.43860520  0.26410509  1
  Rh  Rh14_5  1  0.50000000  0.43860520  0.76410509  1
  Rh  Rh14_6  1  0.50000000  0.93860521  0.26410509  1
  Rh  Rh14_7  1  0.50000000  0.93860521  0.76410509  1
  Rh  Rh15_0  1  0.00000000  0.31159594  0.23606452  1
  Rh  Rh15_1  1  0.00000000  0.31159594  0.73606452  1
  Rh  Rh15_2  1  0.00000000  0.81159594  0.23606452  1
  Rh  Rh15_3  1  0.00000000  0.81159594  0.73606452  1
  Rh  Rh15_4  1  0.50000000  0.31159594  0.23606452  1
  Rh  Rh15_5  1  0.50000000  0.31159594  0.73606452  1
  Rh  Rh15_6  1  0.50000000  0.81159594  0.23606452  1
  Rh  Rh15_7  1  0.50000000  0.81159594  0.73606452  1
  Rh  Rh16_0  1  0.00000000  0.25000000  0.44184531  1
  Rh  Rh16_1  1  0.00000000  0.25000000  0.94184531  1
  Rh  Rh16_2  1  0.00000000  0.75000000  0.44184531  1
  Rh  Rh16_3  1  0.00000000  0.75000000  0.94184531  1
  Rh  Rh16_4  1  0.50000000  0.25000000  0.44184531  1
  Rh  Rh16_5  1  0.50000000  0.25000000  0.94184531  1
  Rh  Rh16_6  1  0.50000000  0.75000000  0.44184531  1
  Rh  Rh16_7  1  0.50000000  0.75000000  0.94184531  1
loop_
_geom_bond_atom_site_label_1
_geom_bond_atom_site_label_2
_geom_bond_distance
_geom_bond_site_symmetry_2
Zn2_0 Zn4_0 2.576877 1_555
Zn2_0 Zn2_4 2.855526 1_455
Zn2_0 Zn2_4 2.855526 1_555
Zn2_0 Zn3_1 2.962102 1_554
Zn2_1 Zn4_1 2.576877 1_555
Zn2_1 Zn2_5 2.855526 1_455
Zn2_1 Zn2_5 2.855526 1_555
Zn2_1 Zn3_0 2.962102 1_555
Zn2_2 Zn4_2 2.576877 1_555
Zn2_2 Zn2_6 2.855526 1_455
Zn2_2 Zn2_6 2.855526 1_555
Zn2_2 Zn3_3 2.962102 1_554
Zn2_3 Zn4_3 2.576877 1_555
Zn2_3 Zn2_7 2.855526 1_455
Zn2_3 Zn2_7 2.855526 1_555
Zn2_3 Zn3_2 2.962102 1_555
Zn2_4 Zn4_4 2.576877 1_555
Zn2_4 Zn3_5 2.962102 1_554
Zn2_5 Zn4_5 2.576877 1_555
Zn2_5 Zn3_4 2.962102 1_555
Zn2_6 Zn4_6 2.576877 1_555
Zn2_6 Zn3_7 2.962102 1_554
Zn2_7 Zn4_7 2.576877 1_555
Zn2_7 Zn3_6 2.962102 1_555
Zn3_0 Zn5_2 2.581710 1_545
Zn3_0 Zn3_4 2.855526 1_455
Zn3_0 Zn3_4 2.855526 1_555
Zn3_1 Zn5_3 2.581710 1_545
Zn3_1 Zn3_5 2.855526 1_455
Zn3_1 Zn3_5 2.855526 1_555
Zn3_2 Zn5_0 2.581710 1_555
Zn3_2 Zn3_6 2.855526 1_455
Zn3_2 Zn3_6 2.855526 1_555
Zn3_3 Zn5_1 2.581710 1_555
Zn3_3 Zn3_7 2.855526 1_455
Zn3_3 Zn3_7 2.855526 1_555
Zn3_4 Zn5_6 2.581710 1_545
Zn3_5 Zn5_7 2.581710 1_545
Zn3_6 Zn5_4 2.581710 1_555
Zn3_7 Zn5_5 2.581710 1_555
Zn4_0 Zn4_4 2.855526 1_455
Zn4_0 Zn4_4 2.855526 1_555
Zn4_0 Zn5_1 2.962102 1_554
Zn4_1 Zn4_5 2.855526 1_455
Zn4_1 Zn4_5 2.855526 1_555
Zn4_1 Zn5_0 2.962102 1_555
Zn4_2 Zn4_6 2.855526 1_455
Zn4_2 Zn4_6 2.855526 1_555
Zn4_2 Zn5_3 2.962102 1_554
Zn4_3 Zn4_7 2.855526 1_455
Zn4_3 Zn4_7 2.855526 1_555
Zn4_3 Zn5_2 2.962102 1_555
Zn4_4 Zn5_5 2.962102 1_554
Zn4_5 Zn5_4 2.962102 1_555
Zn4_6 Zn5_7 2.962102 1_554
Zn4_7 Zn5_6 2.962102 1_555
Zn5_0 Zn5_4 2.855526 1_455
Zn5_0 Zn5_4 2.855526 1_555
Zn5_1 Zn5_5 2.855526 1_455
Zn5_1 Zn5_5 2.855526 1_555
Zn5_2 Zn5_6 2.855526 1_455
Zn5_2 Zn5_6 2.855526 1_555
Zn5_3 Zn5_7 2.855526 1_455
Zn5_3 Zn5_7 2.855526 1_555
Zn6_0 Zn8_0 2.765512 1_555
Zn6_0 Zn6_4 2.855526 1_455
Zn6_0 Zn6_4 2.855526 1_555
Zn6_1 Zn8_1 2.765512 1_555
Zn6_1 Zn6_5 2.855526 1_455
Zn6_1 Zn6_5 2.855526 1_555
Zn6_2 Zn8_2 2.765512 1_555
Zn6_2 Zn6_6 2.855526 1_455
Zn6_2 Zn6_6 2.855526 1_555
Zn6_3 Zn8_3 2.765512 1_555
Zn6_3 Zn6_7 2.855526 1_455
Zn6_3 Zn6_7 2.855526 1_555
Zn6_4 Zn8_4 2.765512 1_555
Zn6_5 Zn8_5 2.765512 1_555
Zn6_6 Zn8_6 2.765512 1_555
Zn6_7 Zn8_7 2.765512 1_555
Zn7_0 Zn7_4 2.855526 1_455
Zn7_0 Zn7_4 2.855526 1_555
Zn7_0 Zn9_2 2.930118 1_545
Zn7_1 Zn7_5 2.855526 1_455
Zn7_1 Zn7_5 2.855526 1_555
Zn7_1 Zn9_3 2.930118 1_545
Zn7_2 Zn7_6 2.855526 1_455
Zn7_2 Zn7_6 2.855526 1_555
Zn7_2 Zn9_0 2.930118 1_555
Zn7_3 Zn7_7 2.855526 1_455
Zn7_3 Zn7_7 2.855526 1_555
Zn7_3 Zn9_1 2.930118 1_555
Zn7_4 Zn9_6 2.930118 1_545
Zn7_5 Zn9_7 2.930118 1_545
Zn7_6 Zn9_4 2.930118 1_555
Zn7_7 Zn9_5 2.930118 1_555
Zn8_0 Zn8_4 2.855526 1_455
Zn8_0 Zn8_4 2.855526 1_555
Zn8_1 Zn8_5 2.855526 1_455
Zn8_1 Zn8_5 2.855526 1_555
Zn8_2 Zn8_6 2.855526 1_455
Zn8_2 Zn8_6 2.855526 1_555
Zn8_3 Zn8_7 2.855526 1_455
Zn8_3 Zn8_7 2.855526 1_555
Zn9_0 Zn9_4 2.855526 1_455
Zn9_0 Zn9_4 2.855526 1_555
Zn9_1 Zn9_5 2.855526 1_455
Zn9_1 Zn9_5 2.855526 1_555
Zn9_2 Zn9_6 2.855526 1_455
Zn9_2 Zn9_6 2.855526 1_555
Zn9_3 Zn9_7 2.855526 1_455
Zn9_3 Zn9_7 2.855526 1_555
Zn10_0 Zn6_0 2.625495 1_555
Zn10_1 Zn6_1 2.625495 1_555
Zn10_2 Zn6_2 2.625495 1_555
Zn10_3 Zn6_3 2.625495 1_555
Zn10_4 Zn6_4 2.625495 1_555
Zn10_5 Zn6_5 2.625495 1_555
Zn10_6 Zn6_6 2.625495 1_555
Zn10_7 Zn6_7 2.625495 1_555
Zn11_0 Zn7_0 2.529495 1_555
Zn11_0 Zn11_4 2.855526 1_455
Zn11_0 Zn11_4 2.855526 1_555
Zn11_1 Zn7_1 2.529495 1_555
Zn11_1 Zn11_5 2.855526 1_455
Zn11_1 Zn11_5 2.855526 1_555
Zn11_2 Zn7_2 2.529495 1_555
Zn11_2 Zn11_6 2.855526 1_455
Zn11_2 Zn11_6 2.855526 1_555
Zn11_3 Zn7_3 2.529495 1_555
Zn11_3 Zn11_7 2.855526 1_455
Zn11_3 Zn11_7 2.855526 1_555
Zn11_4 Zn7_4 2.529495 1_555
Zn11_5 Zn7_5 2.529495 1_555
Zn11_6 Zn7_6 2.529495 1_555
Zn11_7 Zn7_7 2.529495 1_555
Zn12_0 Zn8_0 2.625495 1_555
Zn12_1 Zn8_1 2.625495 1_555
Zn12_2 Zn8_2 2.625495 1_555
Zn12_3 Zn8_3 2.625495 1_555
Zn12_4 Zn8_4 2.625495 1_555
Zn12_5 Zn8_5 2.625495 1_555
Zn12_6 Zn8_6 2.625495 1_555
Zn12_7 Zn8_7 2.625495 1_555
Zn13_0 Zn9_0 2.529495 1_555
Zn13_0 Zn13_4 2.855526 1_455
Zn13_0 Zn13_4 2.855526 1_555
Zn13_1 Zn9_1 2.529495 1_555
Zn13_1 Zn13_5 2.855526 1_455
Zn13_1 Zn13_5 2.855526 1_555
Zn13_2 Zn9_2 2.529495 1_555
Zn13_2 Zn13_6 2.855526 1_455
Zn13_2 Zn13_6 2.855526 1_555
Zn13_3 Zn9_3 2.529495 1_555
Zn13_3 Zn13_7 2.855526 1_455
Zn13_3 Zn13_7 2.855526 1_555
Zn13_4 Zn9_4 2.529495 1_555
Zn13_5 Zn9_5 2.529495 1_555
Zn13_6 Zn9_6 2.529495 1_555
Zn13_7 Zn9_7 2.529495 1_555
Zn14_0 Zn9_6 2.672664 1_445
Zn14_0 Zn9_2 2.672664 1_545
Zn14_0 Zn7_0 2.672664 1_555
Zn14_0 Zn7_4 2.672664 1_455
Zn14_0 Zn5_3 2.719252 1_544
Zn14_0 Zn5_7 2.719252 1_444
Zn14_0 Zn3_5 2.719252 1_454
Zn14_0 Zn3_1 2.719252 1_554
Zn14_1 Zn9_7 2.672664 1_445
Zn14_1 Zn9_3 2.672664 1_545
Zn14_1 Zn7_5 2.672664 1_455
Zn14_1 Zn7_1 2.672664 1_555
Zn14_1 Zn5_6 2.719252 1_445
Zn14_1 Zn5_2 2.719252 1_545
Zn14_1 Zn3_4 2.719252 1_455
Zn14_1 Zn3_0 2.719252 1_555
Zn14_2 Zn9_0 2.672664 1_555
Zn14_2 Zn9_4 2.672664 1_455
Zn14_2 Zn7_2 2.672664 1_555
Zn14_2 Zn7_6 2.672664 1_455
Zn14_2 Zn5_5 2.719252 1_454
Zn14_2 Zn5_1 2.719252 1_554
Zn14_2 Zn3_7 2.719252 1_454
Zn14_2 Zn3_3 2.719252 1_554
Zn14_3 Zn9_5 2.672664 1_455
Zn14_3 Zn9_1 2.672664 1_555
Zn14_3 Zn7_7 2.672664 1_455
Zn14_3 Zn7_3 2.672664 1_555
Zn14_3 Zn5_4 2.719252 1_455
Zn14_3 Zn5_0 2.719252 1_555
Zn14_3 Zn3_6 2.719252 1_455
Zn14_3 Zn3_2 2.719252 1_555
Zn14_4 Zn9_2 2.672664 1_545
Zn14_4 Zn9_6 2.672664 1_545
Zn14_4 Zn7_0 2.672664 1_555
Zn14_4 Zn7_4 2.672664 1_555
Zn14_4 Zn5_3 2.719252 1_544
Zn14_4 Zn5_7 2.719252 1_544
Zn14_4 Zn3_1 2.719252 1_554
Zn14_4 Zn3_5 2.719252 1_554
Zn14_5 Zn9_3 2.672664 1_545
Zn14_5 Zn9_7 2.672664 1_545
Zn14_5 Zn7_1 2.672664 1_555
Zn14_5 Zn7_5 2.672664 1_555
Zn14_5 Zn5_2 2.719252 1_545
Zn14_5 Zn5_6 2.719252 1_545
Zn14_5 Zn3_0 2.719252 1_555
Zn14_5 Zn3_4 2.719252 1_555
Zn14_6 Zn9_0 2.672664 1_555
Zn14_6 Zn9_4 2.672664 1_555
Zn14_6 Zn7_2 2.672664 1_555
Zn14_6 Zn7_6 2.672664 1_555
Zn14_6 Zn5_1 2.719252 1_554
Zn14_6 Zn5_5 2.719252 1_554
Zn14_6 Zn3_3 2.719252 1_554
Zn14_6 Zn3_7 2.719252 1_554
Zn14_7 Zn9_1 2.672664 1_555
Zn14_7 Zn9_5 2.672664 1_555
Zn14_7 Zn7_3 2.672664 1_555
Zn14_7 Zn7_7 2.672664 1_555
Zn14_7 Zn5_0 2.719252 1_555
Zn14_7 Zn3_2 2.719252 1_555
Zn14_7 Zn5_4 2.719252 1_555
Zn14_7 Zn3_6 2.719252 1_555
B0_0 Rh13_4 2.167103 1_555
B0_0 Rh15_4 2.167103 1_555
B0_0 Rh15_0 2.167103 1_555
B0_0 Rh13_0 2.167103 1_555
B0_0 Rh4_0 2.189059 1_555
B0_0 Rh4_4 2.189059 1_555
B0_0 Zn10_0 2.483141 1_555
B0_0 Zn12_0 2.483141 1_555
B0_0 Zn0_0 2.666071 1_555
B0_1 Rh15_5 2.167103 1_555
B0_1 Rh15_1 2.167103 1_555
B0_1 Rh13_1 2.167103 1_555
B0_1 Rh13_5 2.167103 1_555
B0_1 Rh4_1 2.189059 1_555
B0_1 Rh4_5 2.189059 1_555
B0_1 Zn10_1 2.483141 1_555
B0_1 Zn12_1 2.483141 1_555
B0_1 Zn0_1 2.666071 1_555
B0_2 Rh13_2 2.167103 1_555
B0_2 Rh13_6 2.167103 1_555
B0_2 Rh15_2 2.167103 1_555
B0_2 Rh15_6 2.167103 1_555
B0_2 Rh4_6 2.189059 1_555
B0_2 Rh4_2 2.189059 1_555
B0_2 Zn10_2 2.483141 1_555
B0_2 Zn12_2 2.483141 1_555
B0_2 Zn0_2 2.666071 1_555
B0_3 Rh13_3 2.167103 1_555
B0_3 Rh13_7 2.167103 1_555
B0_3 Rh15_3 2.167103 1_555
B0_3 Rh15_7 2.167103 1_555
B0_3 Rh4_3 2.189059 1_555
B0_3 Rh4_7 2.189059 1_555
B0_3 Zn10_3 2.483141 1_555
B0_3 Zn12_3 2.483141 1_555
B0_3 Zn0_3 2.666071 1_555
B0_4 Rh13_0 2.167103 1_655
B0_4 Rh15_0 2.167103 1_655
B0_4 Rh13_4 2.167103 1_555
B0_4 Rh15_4 2.167103 1_555
B0_4 Rh4_0 2.189059 1_655
B0_4 Rh4_4 2.189059 1_555
B0_4 Zn10_4 2.483141 1_555
B0_4 Zn12_4 2.483141 1_555
B0_4 Zn0_4 2.666071 1_555
B0_5 Rh13_1 2.167103 1_655
B0_5 Rh15_1 2.167103 1_655
B0_5 Rh13_5 2.167103 1_555
B0_5 Rh15_5 2.167103 1_555
B0_5 Rh4_1 2.189059 1_655
B0_5 Rh4_5 2.189059 1_555
B0_5 Zn10_5 2.483141 1_555
B0_5 Zn12_5 2.483141 1_555
B0_5 Zn0_5 2.666071 1_555
B0_6 Rh13_2 2.167103 1_655
B0_6 Rh13_6 2.167103 1_555
B0_6 Rh15_2 2.167103 1_655
B0_6 Rh15_6 2.167103 1_555
B0_6 Rh4_2 2.189059 1_655
B0_6 Rh4_6 2.189059 1_555
B0_6 Zn10_6 2.483141 1_555
B0_6 Zn12_6 2.483141 1_555
B0_6 Zn0_6 2.666071 1_555
B0_7 Rh13_3 2.167103 1_655
B0_7 Rh13_7 2.167103 1_555
B0_7 Rh15_3 2.167103 1_655
B0_7 Rh15_7 2.167103 1_555
B0_7 Rh4_3 2.189059 1_655
B0_7 Rh4_7 2.189059 1_555
B0_7 Zn10_7 2.483141 1_555
B0_7 Zn12_7 2.483141 1_555
B0_7 Zn0_7 2.666071 1_555
B1_0 Rh14_2 2.165823 1_545
B1_0 Rh14_6 2.165823 1_545
B1_0 Rh12_4 2.165823 1_555
B1_0 Rh12_0 2.165823 1_555
B1_0 Rh5_4 2.203616 1_555
B1_0 Rh5_0 2.203616 1_555
B1_0 Zn13_2 2.501748 1_545
B1_0 Zn11_0 2.501748 1_555
B1_0 Zn1_0 2.703196 1_555
B1_1 Rh14_7 2.165823 1_545
B1_1 Rh14_3 2.165823 1_545
B1_1 Rh12_1 2.165823 1_555
B1_1 Rh12_5 2.165823 1_555
B1_1 Rh5_1 2.203616 1_555
B1_1 Rh5_5 2.203616 1_555
B1_1 Zn11_1 2.501748 1_555
B1_1 Zn13_3 2.501748 1_545
B1_1 Zn1_1 2.703196 1_555
B1_2 Rh14_4 2.165823 1_555
B1_2 Rh12_2 2.165823 1_555
B1_2 Rh14_0 2.165823 1_555
B1_2 Rh12_6 2.165823 1_555
B1_2 Rh5_2 2.203616 1_555
B1_2 Rh5_6 2.203616 1_555
B1_2 Zn13_0 2.501748 1_555
B1_2 Zn11_2 2.501748 1_555
B1_2 Zn1_2 2.703196 1_555
B1_3 Rh14_1 2.165823 1_555
B1_3 Rh14_5 2.165823 1_555
B1_3 Rh12_3 2.165823 1_555
B1_3 Rh12_7 2.165823 1_555
B1_3 Rh5_7 2.203616 1_555
B1_3 Rh5_3 2.203616 1_555
B1_3 Zn13_1 2.501748 1_555
B1_3 Zn11_3 2.501748 1_555
B1_3 Zn1_3 2.703196 1_555
B1_4 Rh14_2 2.165823 1_645
B1_4 Rh14_6 2.165823 1_545
B1_4 Rh12_0 2.165823 1_655
B1_4 Rh12_4 2.165823 1_555
B1_4 Rh5_0 2.203616 1_655
B1_4 Rh5_4 2.203616 1_555
B1_4 Zn11_4 2.501748 1_555
B1_4 Zn13_6 2.501748 1_545
B1_4 Zn1_4 2.703196 1_555
B1_5 Rh14_3 2.165823 1_645
B1_5 Rh14_7 2.165823 1_545
B1_5 Rh12_1 2.165823 1_655
B1_5 Rh12_5 2.165823 1_555
B1_5 Rh5_1 2.203616 1_655
B1_5 Rh5_5 2.203616 1_555
B1_5 Zn11_5 2.501748 1_555
B1_5 Zn13_7 2.501748 1_545
B1_5 Zn1_5 2.703196 1_555
B1_6 Rh14_0 2.165823 1_655
B1_6 Rh12_2 2.165823 1_655
B1_6 Rh12_6 2.165823 1_555
B1_6 Rh14_4 2.165823 1_555
B1_6 Rh5_2 2.203616 1_655
B1_6 Rh5_6 2.203616 1_555
B1_6 Zn13_4 2.501748 1_555
B1_6 Zn11_6 2.501748 1_555
B1_6 Zn1_6 2.703196 1_555
B1_7 Rh12_3 2.165823 1_655
B1_7 Rh14_1 2.165823 1_655
B1_7 Rh12_7 2.165823 1_555
B1_7 Rh14_5 2.165823 1_555
B1_7 Rh5_3 2.203616 1_655
B1_7 Rh5_7 2.203616 1_555
B1_7 Zn13_5 2.501748 1_555
B1_7 Zn11_7 2.501748 1_555
B1_7 Zn1_7 2.703196 1_555
B2_0 Rh6_4 2.126693 1_555
B2_0 Rh6_0 2.126693 1_555
B2_0 Rh0_0 2.138547 1_555
B2_0 Rh0_4 2.138547 1_555
B2_0 Rh11_0 2.228222 1_555
B2_0 Rh11_4 2.228222 1_555
B2_0 Zn3_0 2.591271 1_555
B2_0 Zn6_0 2.680720 1_555
B2_1 Rh6_1 2.126693 1_555
B2_1 Rh6_5 2.126693 1_555
B2_1 Rh0_1 2.138547 1_555
B2_1 Rh0_5 2.138547 1_555
B2_1 Rh11_5 2.228222 1_555
B2_1 Rh11_1 2.228222 1_555
B2_1 Zn3_1 2.591271 1_555
B2_1 Zn6_1 2.680720 1_555
B2_2 Rh6_6 2.126693 1_555
B2_2 Rh6_2 2.126693 1_555
B2_2 Rh0_6 2.138547 1_555
B2_2 Rh0_2 2.138547 1_555
B2_2 Rh11_2 2.228222 1_555
B2_2 Rh11_6 2.228222 1_555
B2_2 Zn3_2 2.591271 1_555
B2_2 Zn6_2 2.680720 1_555
B2_3 Rh6_3 2.126693 1_555
B2_3 Rh6_7 2.126693 1_555
B2_3 Rh0_7 2.138547 1_555
B2_3 Rh0_3 2.138547 1_555
B2_3 Rh11_7 2.228222 1_555
B2_3 Rh11_3 2.228222 1_555
B2_3 Zn3_3 2.591271 1_555
B2_3 Zn6_3 2.680720 1_555
B2_4 Rh6_0 2.126693 1_655
B2_4 Rh6_4 2.126693 1_555
B2_4 Rh0_0 2.138547 1_655
B2_4 Rh0_4 2.138547 1_555
B2_4 Rh11_0 2.228222 1_655
B2_4 Rh11_4 2.228222 1_555
B2_4 Zn3_4 2.591271 1_555
B2_4 Zn6_4 2.680720 1_555
B2_5 Rh6_1 2.126693 1_655
B2_5 Rh6_5 2.126693 1_555
B2_5 Rh0_1 2.138547 1_655
B2_5 Rh0_5 2.138547 1_555
B2_5 Rh11_1 2.228222 1_655
B2_5 Rh11_5 2.228222 1_555
B2_5 Zn3_5 2.591271 1_555
B2_5 Zn6_5 2.680720 1_555
B2_6 Rh6_2 2.126693 1_655
B2_6 Rh6_6 2.126693 1_555
B2_6 Rh0_2 2.138547 1_655
B2_6 Rh0_6 2.138547 1_555
B2_6 Rh11_2 2.228222 1_655
B2_6 Rh11_6 2.228222 1_555
B2_6 Zn3_6 2.591271 1_555
B2_6 Zn6_6 2.680720 1_555
B2_7 Rh6_3 2.126693 1_655
B2_7 Rh6_7 2.126693 1_555
B2_7 Rh0_3 2.138547 1_655
B2_7 Rh0_7 2.138547 1_555
B2_7 Rh11_3 2.228222 1_655
B2_7 Rh11_7 2.228222 1_555
B2_7 Zn3_7 2.591271 1_555
B2_7 Zn6_7 2.680720 1_555
B3_0 Rh7_0 2.127335 1_555
B3_0 Rh7_4 2.127335 1_555
B3_0 Rh1_0 2.180492 1_555
B3_0 Rh1_4 2.180492 1_555
B3_0 Rh10_0 2.233071 1_555
B3_0 Rh10_4 2.233071 1_555
B3_0 Zn2_0 2.621139 1_555
B3_0 Zn7_0 2.635730 1_555
B3_1 Rh7_5 2.127335 1_555
B3_1 Rh7_1 2.127335 1_555
B3_1 Rh1_1 2.180492 1_555
B3_1 Rh1_5 2.180492 1_555
B3_1 Rh10_5 2.233071 1_555
B3_1 Rh10_1 2.233071 1_555
B3_1 Zn2_1 2.621139 1_555
B3_1 Zn7_1 2.635730 1_555
B3_2 Rh7_2 2.127335 1_555
B3_2 Rh7_6 2.127335 1_555
B3_2 Rh1_2 2.180492 1_555
B3_2 Rh1_6 2.180492 1_555
B3_2 Rh10_2 2.233071 1_555
B3_2 Rh10_6 2.233071 1_555
B3_2 Zn2_2 2.621139 1_555
B3_2 Zn7_2 2.635730 1_555
B3_3 Rh7_3 2.127335 1_555
B3_3 Rh7_7 2.127335 1_555
B3_3 Rh1_3 2.180492 1_555
B3_3 Rh1_7 2.180492 1_555
B3_3 Rh10_3 2.233071 1_555
B3_3 Rh10_7 2.233071 1_555
B3_3 Zn2_3 2.621139 1_555
B3_3 Zn7_3 2.635730 1_555
B3_4 Rh7_0 2.127335 1_655
B3_4 Rh7_4 2.127335 1_555
B3_4 Rh1_0 2.180492 1_655
B3_4 Rh1_4 2.180492 1_555
B3_4 Rh10_0 2.233071 1_655
B3_4 Rh10_4 2.233071 1_555
B3_4 Zn2_4 2.621139 1_555
B3_4 Zn7_4 2.635730 1_555
B3_5 Rh7_1 2.127335 1_655
B3_5 Rh7_5 2.127335 1_555
B3_5 Rh1_1 2.180492 1_655
B3_5 Rh1_5 2.180492 1_555
B3_5 Rh10_1 2.233071 1_655
B3_5 Rh10_5 2.233071 1_555
B3_5 Zn2_5 2.621139 1_555
B3_5 Zn7_5 2.635730 1_555
B3_6 Rh7_2 2.127335 1_655
B3_6 Rh7_6 2.127335 1_555
B3_6 Rh1_2 2.180492 1_655
B3_6 Rh1_6 2.180492 1_555
B3_6 Rh10_2 2.233071 1_655
B3_6 Rh10_6 2.233071 1_555
B3_6 Zn2_6 2.621139 1_555
B3_6 Zn7_6 2.635730 1_555
B3_7 Rh7_3 2.127335 1_655
B3_7 Rh7_7 2.127335 1_555
B3_7 Rh1_3 2.180492 1_655
B3_7 Rh1_7 2.180492 1_555
B3_7 Rh10_3 2.233071 1_655
B3_7 Rh10_7 2.233071 1_555
B3_7 Zn2_7 2.621139 1_555
B3_7 Zn7_7 2.635730 1_555
B4_0 Rh8_0 2.126693 1_555
B4_0 Rh8_4 2.126693 1_555
B4_0 Rh2_0 2.138547 1_555
B4_0 Rh2_4 2.138547 1_555
B4_0 Rh11_2 2.228222 1_555
B4_0 Rh11_6 2.228222 1_555
B4_0 Zn5_0 2.591271 1_555
B4_0 Zn8_0 2.680720 1_555
B4_1 Rh8_1 2.126693 1_555
B4_1 Rh8_5 2.126693 1_555
B4_1 Rh2_1 2.138547 1_555
B4_1 Rh2_5 2.138547 1_555
B4_1 Rh11_7 2.228222 1_555
B4_1 Rh11_3 2.228222 1_555
B4_1 Zn5_1 2.591271 1_555
B4_1 Zn8_1 2.680720 1_555
B4_2 Rh8_2 2.126693 1_555
B4_2 Rh8_6 2.126693 1_555
B4_2 Rh2_2 2.138547 1_555
B4_2 Rh2_6 2.138547 1_555
B4_2 Rh11_0 2.228222 1_565
B4_2 Rh11_4 2.228222 1_565
B4_2 Zn5_2 2.591271 1_555
B4_2 Zn8_2 2.680720 1_555
B4_3 Rh8_3 2.126693 1_555
B4_3 Rh8_7 2.126693 1_555
B4_3 Rh2_7 2.138547 1_555
B4_3 Rh2_3 2.138547 1_555
B4_3 Rh11_1 2.228222 1_565
B4_3 Rh11_5 2.228222 1_565
B4_3 Zn5_3 2.591271 1_555
B4_3 Zn8_3 2.680720 1_555
B4_4 Rh8_0 2.126693 1_655
B4_4 Rh8_4 2.126693 1_555
B4_4 Rh2_0 2.138547 1_655
B4_4 Rh2_4 2.138547 1_555
B4_4 Rh11_2 2.228222 1_655
B4_4 Rh11_6 2.228222 1_555
B4_4 Zn5_4 2.591271 1_555
B4_4 Zn8_4 2.680720 1_555
B4_5 Rh8_1 2.126693 1_655
B4_5 Rh8_5 2.126693 1_555
B4_5 Rh2_1 2.138547 1_655
B4_5 Rh2_5 2.138547 1_555
B4_5 Rh11_3 2.228222 1_655
B4_5 Rh11_7 2.228222 1_555
B4_5 Zn5_5 2.591271 1_555
B4_5 Zn8_5 2.680720 1_555
B4_6 Rh8_2 2.126693 1_655
B4_6 Rh8_6 2.126693 1_555
B4_6 Rh2_2 2.138547 1_655
B4_6 Rh2_6 2.138547 1_555
B4_6 Rh11_0 2.228222 1_665
B4_6 Rh11_4 2.228222 1_565
B4_6 Zn5_6 2.591271 1_555
B4_6 Zn8_6 2.680720 1_555
B4_7 Rh8_3 2.126693 1_655
B4_7 Rh8_7 2.126693 1_555
B4_7 Rh2_3 2.138547 1_655
B4_7 Rh2_7 2.138547 1_555
B4_7 Rh11_1 2.228222 1_665
B4_7 Rh11_5 2.228222 1_565
B4_7 Zn5_7 2.591271 1_555
B4_7 Zn8_7 2.680720 1_555
B5_0 Rh9_4 2.127335 1_555
B5_0 Rh9_0 2.127335 1_555
B5_0 Rh3_0 2.180492 1_555
B5_0 Rh3_4 2.180492 1_555
B5_0 Rh10_4 2.233071 1_555
B5_0 Rh10_0 2.233071 1_555
B5_0 Zn4_0 2.621139 1_555
B5_0 Zn9_0 2.635730 1_555
B5_1 Rh9_5 2.127335 1_555
B5_1 Rh9_1 2.127335 1_555
B5_1 Rh3_1 2.180492 1_555
B5_1 Rh3_5 2.180492 1_555
B5_1 Rh10_5 2.233071 1_555
B5_1 Rh10_1 2.233071 1_555
B5_1 Zn4_1 2.621139 1_555
B5_1 Zn9_1 2.635730 1_555
B5_2 Rh9_2 2.127335 1_555
B5_2 Rh9_6 2.127335 1_555
B5_2 Rh3_6 2.180492 1_555
B5_2 Rh3_2 2.180492 1_555
B5_2 Rh10_2 2.233071 1_555
B5_2 Rh10_6 2.233071 1_555
B5_2 Zn4_2 2.621139 1_555
B5_2 Zn9_2 2.635730 1_555
B5_3 Rh9_3 2.127335 1_555
B5_3 Rh9_7 2.127335 1_555
B5_3 Rh3_3 2.180492 1_555
B5_3 Rh3_7 2.180492 1_555
B5_3 Rh10_3 2.233071 1_555
B5_3 Rh10_7 2.233071 1_555
B5_3 Zn4_3 2.621139 1_555
B5_3 Zn9_3 2.635730 1_555
B5_4 Rh9_0 2.127335 1_655
B5_4 Rh9_4 2.127335 1_555
B5_4 Rh3_0 2.180492 1_655
B5_4 Rh3_4 2.180492 1_555
B5_4 Rh10_0 2.233071 1_655
B5_4 Rh10_4 2.233071 1_555
B5_4 Zn4_4 2.621139 1_555
B5_4 Zn9_4 2.635730 1_555
B5_5 Rh9_1 2.127335 1_655
B5_5 Rh9_5 2.127335 1_555
B5_5 Rh3_1 2.180492 1_655
B5_5 Rh3_5 2.180492 1_555
B5_5 Rh10_1 2.233071 1_655
B5_5 Rh10_5 2.233071 1_555
B5_5 Zn4_5 2.621139 1_555
B5_5 Zn9_5 2.635730 1_555
B5_6 Rh9_2 2.127335 1_655
B5_6 Rh9_6 2.127335 1_555
B5_6 Rh3_2 2.180492 1_655
B5_6 Rh3_6 2.180492 1_555
B5_6 Rh10_2 2.233071 1_655
B5_6 Rh10_6 2.233071 1_555
B5_6 Zn4_6 2.621139 1_555
B5_6 Zn9_6 2.635730 1_555
B5_7 Rh9_3 2.127335 1_655
B5_7 Rh9_7 2.127335 1_555
B5_7 Rh3_3 2.180492 1_655
B5_7 Rh3_7 2.180492 1_555
B5_7 Rh10_3 2.233071 1_655
B5_7 Rh10_7 2.233071 1_555
B5_7 Zn4_7 2.621139 1_555
B5_7 Zn9_7 2.635730 1_555
Rh0_0 Zn3_0 2.552173 1_555
Rh0_0 Zn3_4 2.552173 1_455
Rh0_0 Zn2_5 2.648767 1_455
Rh0_0 Zn2_1 2.648767 1_555
Rh0_0 Zn6_0 2.684945 1_555
Rh0_0 Zn6_4 2.684945 1_455
Rh0_1 Zn3_5 2.552173 1_455
Rh0_1 Zn3_1 2.552173 1_555
Rh0_1 Zn2_4 2.648767 1_456
Rh0_1 Zn2_0 2.648767 1_556
Rh0_1 Zn6_5 2.684945 1_455
Rh0_1 Zn6_1 2.684945 1_555
Rh0_2 Zn3_6 2.552173 1_455
Rh0_2 Zn3_2 2.552173 1_555
Rh0_2 Zn2_7 2.648767 1_455
Rh0_2 Zn2_3 2.648767 1_555
Rh0_2 Zn6_6 2.684945 1_455
Rh0_2 Zn6_2 2.684945 1_555
Rh0_3 Zn3_7 2.552173 1_455
Rh0_3 Zn3_3 2.552173 1_555
Rh0_3 Zn2_6 2.648767 1_456
Rh0_3 Zn2_2 2.648767 1_556
Rh0_3 Zn6_7 2.684945 1_455
Rh0_3 Zn6_3 2.684945 1_555
Rh0_4 Zn3_0 2.552173 1_555
Rh0_4 Zn3_4 2.552173 1_555
Rh0_4 Zn2_1 2.648767 1_555
Rh0_4 Zn2_5 2.648767 1_555
Rh0_4 Zn6_0 2.684945 1_555
Rh0_4 Zn6_4 2.684945 1_555
Rh0_5 Zn3_1 2.552173 1_555
Rh0_5 Zn3_5 2.552173 1_555
Rh0_5 Zn2_0 2.648767 1_556
Rh0_5 Zn2_4 2.648767 1_556
Rh0_5 Zn6_5 2.684945 1_555
Rh0_5 Zn6_1 2.684945 1_555
Rh0_6 Zn3_2 2.552173 1_555
Rh0_6 Zn3_6 2.552173 1_555
Rh0_6 Zn2_3 2.648767 1_555
Rh0_6 Zn2_7 2.648767 1_555
Rh0_6 Zn6_2 2.684945 1_555
Rh0_6 Zn6_6 2.684945 1_555
Rh0_7 Zn3_3 2.552173 1_555
Rh0_7 Zn3_7 2.552173 1_555
Rh0_7 Zn2_2 2.648767 1_556
Rh0_7 Zn2_6 2.648767 1_556
Rh0_7 Zn6_3 2.684945 1_555
Rh0_7 Zn6_7 2.684945 1_555
Rh1_0 Zn3_5 2.623379 1_454
Rh1_0 Zn3_1 2.623379 1_554
Rh1_0 Zn2_4 2.641875 1_455
Rh1_0 Zn2_0 2.641875 1_555
Rh1_0 Zn14_0 2.677162 1_555
Rh1_0 Zn7_4 2.682287 1_455
Rh1_0 Zn7_0 2.682287 1_555
Rh1_1 Zn3_4 2.623379 1_455
Rh1_1 Zn3_0 2.623379 1_555
Rh1_1 Zn2_5 2.641875 1_455
Rh1_1 Zn2_1 2.641875 1_555
Rh1_1 Zn14_1 2.677162 1_555
Rh1_1 Zn7_5 2.682287 1_455
Rh1_1 Zn7_1 2.682287 1_555
Rh1_2 Zn3_7 2.623379 1_454
Rh1_2 Zn3_3 2.623379 1_554
Rh1_2 Zn2_6 2.641875 1_455
Rh1_2 Zn2_2 2.641875 1_555
Rh1_2 Zn14_2 2.677162 1_555
Rh1_2 Zn7_6 2.682287 1_455
Rh1_2 Zn7_2 2.682287 1_555
Rh1_3 Zn3_6 2.623379 1_455
Rh1_3 Zn3_2 2.623379 1_555
Rh1_3 Zn2_7 2.641875 1_455
Rh1_3 Zn2_3 2.641875 1_555
Rh1_3 Zn14_3 2.677162 1_555
Rh1_3 Zn7_7 2.682287 1_455
Rh1_3 Zn7_3 2.682287 1_555
Rh1_4 Zn3_1 2.623379 1_554
Rh1_4 Zn3_5 2.623379 1_554
Rh1_4 Zn2_0 2.641875 1_555
Rh1_4 Zn2_4 2.641875 1_555
Rh1_4 Zn14_4 2.677162 1_555
Rh1_4 Zn7_0 2.682287 1_555
Rh1_4 Zn7_4 2.682287 1_555
Rh1_5 Zn3_0 2.623379 1_555
Rh1_5 Zn3_4 2.623379 1_555
Rh1_5 Zn2_1 2.641875 1_555
Rh1_5 Zn2_5 2.641875 1_555
Rh1_5 Zn14_5 2.677162 1_555
Rh1_5 Zn7_1 2.682287 1_555
Rh1_5 Zn7_5 2.682287 1_555
Rh1_6 Zn3_3 2.623379 1_554
Rh1_6 Zn3_7 2.623379 1_554
Rh1_6 Zn2_2 2.641875 1_555
Rh1_6 Zn2_6 2.641875 1_555
Rh1_6 Zn14_6 2.677162 1_555
Rh1_6 Zn7_2 2.682287 1_555
Rh1_6 Zn7_6 2.682287 1_555
Rh1_7 Zn3_2 2.623379 1_555
Rh1_7 Zn3_6 2.623379 1_555
Rh1_7 Zn2_3 2.641875 1_555
Rh1_7 Zn2_7 2.641875 1_555
Rh1_7 Zn14_7 2.677162 1_555
Rh1_7 Zn7_3 2.682287 1_555
Rh1_7 Zn7_7 2.682287 1_555
Rh2_0 Zn5_0 2.552173 1_555
Rh2_0 Zn5_4 2.552173 1_455
Rh2_0 Zn4_5 2.648767 1_455
Rh2_0 Zn4_1 2.648767 1_555
Rh2_0 Zn8_4 2.684945 1_455
Rh2_0 Zn8_0 2.684945 1_555
Rh2_1 Zn5_5 2.552173 1_455
Rh2_1 Zn5_1 2.552173 1_555
Rh2_1 Zn4_4 2.648767 1_456
Rh2_1 Zn4_0 2.648767 1_556
Rh2_1 Zn8_1 2.684945 1_555
Rh2_1 Zn8_5 2.684945 1_455
Rh2_2 Zn5_6 2.552173 1_455
Rh2_2 Zn5_2 2.552173 1_555
Rh2_2 Zn4_7 2.648767 1_455
Rh2_2 Zn4_3 2.648767 1_555
Rh2_2 Zn8_2 2.684945 1_555
Rh2_2 Zn8_6 2.684945 1_455
Rh2_3 Zn5_3 2.552173 1_555
Rh2_3 Zn5_7 2.552173 1_455
Rh2_3 Zn4_6 2.648767 1_456
Rh2_3 Zn4_2 2.648767 1_556
Rh2_3 Zn8_3 2.684945 1_555
Rh2_3 Zn8_7 2.684945 1_455
Rh2_4 Zn5_0 2.552173 1_555
Rh2_4 Zn5_4 2.552173 1_555
Rh2_4 Zn4_1 2.648767 1_555
Rh2_4 Zn4_5 2.648767 1_555
Rh2_4 Zn8_0 2.684945 1_555
Rh2_4 Zn8_4 2.684945 1_555
Rh2_5 Zn5_1 2.552173 1_555
Rh2_5 Zn5_5 2.552173 1_555
Rh2_5 Zn4_0 2.648767 1_556
Rh2_5 Zn4_4 2.648767 1_556
Rh2_5 Zn8_1 2.684945 1_555
Rh2_5 Zn8_5 2.684945 1_555
Rh2_6 Zn5_2 2.552173 1_555
Rh2_6 Zn5_6 2.552173 1_555
Rh2_6 Zn4_3 2.648767 1_555
Rh2_6 Zn4_7 2.648767 1_555
Rh2_6 Zn8_2 2.684945 1_555
Rh2_6 Zn8_6 2.684945 1_555
Rh2_7 Zn5_3 2.552173 1_555
Rh2_7 Zn5_7 2.552173 1_555
Rh2_7 Zn4_2 2.648767 1_556
Rh2_7 Zn4_6 2.648767 1_556
Rh2_7 Zn8_3 2.684945 1_555
Rh2_7 Zn8_7 2.684945 1_555
Rh3_0 Zn5_5 2.623379 1_454
Rh3_0 Zn5_1 2.623379 1_554
Rh3_0 Zn4_4 2.641875 1_455
Rh3_0 Zn4_0 2.641875 1_555
Rh3_0 Zn14_2 2.677162 1_555
Rh3_0 Zn9_4 2.682287 1_455
Rh3_0 Zn9_0 2.682287 1_555
Rh3_1 Zn5_0 2.623379 1_555
Rh3_1 Zn5_4 2.623379 1_455
Rh3_1 Zn4_5 2.641875 1_455
Rh3_1 Zn4_1 2.641875 1_555
Rh3_1 Zn14_3 2.677162 1_555
Rh3_1 Zn9_5 2.682287 1_455
Rh3_1 Zn9_1 2.682287 1_555
Rh3_2 Zn5_7 2.623379 1_454
Rh3_2 Zn5_3 2.623379 1_554
Rh3_2 Zn4_6 2.641875 1_455
Rh3_2 Zn4_2 2.641875 1_555
Rh3_2 Zn14_0 2.677162 1_565
Rh3_2 Zn9_6 2.682287 1_455
Rh3_2 Zn9_2 2.682287 1_555
Rh3_3 Zn5_6 2.623379 1_455
Rh3_3 Zn5_2 2.623379 1_555
Rh3_3 Zn4_7 2.641875 1_455
Rh3_3 Zn4_3 2.641875 1_555
Rh3_3 Zn14_1 2.677162 1_565
Rh3_3 Zn9_7 2.682287 1_455
Rh3_3 Zn9_3 2.682287 1_555
Rh3_4 Zn5_1 2.623379 1_554
Rh3_4 Zn5_5 2.623379 1_554
Rh3_4 Zn4_0 2.641875 1_555
Rh3_4 Zn4_4 2.641875 1_555
Rh3_4 Zn14_6 2.677162 1_555
Rh3_4 Zn9_0 2.682287 1_555
Rh3_4 Zn9_4 2.682287 1_555
Rh3_5 Zn5_0 2.623379 1_555
Rh3_5 Zn5_4 2.623379 1_555
Rh3_5 Zn4_1 2.641875 1_555
Rh3_5 Zn4_5 2.641875 1_555
Rh3_5 Zn14_7 2.677162 1_555
Rh3_5 Zn9_1 2.682287 1_555
Rh3_5 Zn9_5 2.682287 1_555
Rh3_6 Zn5_3 2.623379 1_554
Rh3_6 Zn5_7 2.623379 1_554
Rh3_6 Zn4_2 2.641875 1_555
Rh3_6 Zn4_6 2.641875 1_555
Rh3_6 Zn14_4 2.677162 1_565
Rh3_6 Zn9_2 2.682287 1_555
Rh3_6 Zn9_6 2.682287 1_555
Rh3_7 Zn5_2 2.623379 1_555
Rh3_7 Zn5_6 2.623379 1_555
Rh3_7 Zn4_3 2.641875 1_555
Rh3_7 Zn4_7 2.641875 1_555
Rh3_7 Zn14_5 2.677162 1_565
Rh3_7 Zn9_3 2.682287 1_555
Rh3_7 Zn9_7 2.682287 1_555
Rh4_0 Zn10_4 2.720252 1_455
Rh4_0 Zn10_0 2.720252 1_555
Rh4_0 Zn12_4 2.720252 1_455
Rh4_0 Zn12_0 2.720252 1_555
Rh4_0 Zn8_4 2.745838 1_455
Rh4_0 Zn6_4 2.745838 1_455
Rh4_0 Zn8_0 2.745838 1_555
Rh4_0 Zn6_0 2.745838 1_555
Rh4_1 Zn10_5 2.720252 1_455
Rh4_1 Zn12_5 2.720252 1_455
Rh4_1 Zn10_1 2.720252 1_555
Rh4_1 Zn12_1 2.720252 1_555
Rh4_1 Zn8_5 2.745838 1_455
Rh4_1 Zn6_5 2.745838 1_455
Rh4_1 Zn8_1 2.745838 1_555
Rh4_1 Zn6_1 2.745838 1_555
Rh4_2 Zn10_6 2.720252 1_455
Rh4_2 Zn10_2 2.720252 1_555
Rh4_2 Zn12_6 2.720252 1_455
Rh4_2 Zn12_2 2.720252 1_555
Rh4_2 Zn6_6 2.745838 1_455
Rh4_2 Zn6_2 2.745838 1_555
Rh4_2 Zn8_2 2.745838 1_555
Rh4_2 Zn8_6 2.745838 1_455
Rh4_3 Zn10_7 2.720252 1_455
Rh4_3 Zn10_3 2.720252 1_555
Rh4_3 Zn12_7 2.720252 1_455
Rh4_3 Zn12_3 2.720252 1_555
Rh4_3 Zn6_7 2.745838 1_455
Rh4_3 Zn6_3 2.745838 1_555
Rh4_3 Zn8_7 2.745838 1_455
Rh4_3 Zn8_3 2.745838 1_555
Rh4_4 Zn10_0 2.720252 1_555
Rh4_4 Zn10_4 2.720252 1_555
Rh4_4 Zn12_0 2.720252 1_555
Rh4_4 Zn12_4 2.720252 1_555
Rh4_4 Zn8_0 2.745838 1_555
Rh4_4 Zn6_0 2.745838 1_555
Rh4_4 Zn8_4 2.745838 1_555
Rh4_4 Zn6_4 2.745838 1_555
Rh4_5 Zn10_1 2.720252 1_555
Rh4_5 Zn12_1 2.720252 1_555
Rh4_5 Zn10_5 2.720252 1_555
Rh4_5 Zn12_5 2.720252 1_555
Rh4_5 Zn8_1 2.745838 1_555
Rh4_5 Zn6_1 2.745838 1_555
Rh4_5 Zn8_5 2.745838 1_555
Rh4_5 Zn6_5 2.745838 1_555
Rh4_6 Zn10_2 2.720252 1_555
Rh4_6 Zn10_6 2.720252 1_555
Rh4_6 Zn12_2 2.720252 1_555
Rh4_6 Zn12_6 2.720252 1_555
Rh4_6 Zn6_2 2.745838 1_555
Rh4_6 Zn6_6 2.745838 1_555
Rh4_6 Zn8_2 2.745838 1_555
Rh4_6 Zn8_6 2.745838 1_555
Rh4_7 Zn10_3 2.720252 1_555
Rh4_7 Zn10_7 2.720252 1_555
Rh4_7 Zn12_3 2.720252 1_555
Rh4_7 Zn12_7 2.720252 1_555
Rh4_7 Zn6_3 2.745838 1_555
Rh4_7 Zn6_7 2.745838 1_555
Rh4_7 Zn8_3 2.745838 1_555
Rh4_7 Zn8_7 2.745838 1_555
Rh5_0 Zn9_6 2.707879 1_445
Rh5_0 Zn9_2 2.707879 1_545
Rh5_0 Zn7_4 2.707879 1_455
Rh5_0 Zn7_0 2.707879 1_555
Rh5_0 Zn11_4 2.752352 1_455
Rh5_0 Zn13_6 2.752352 1_445
Rh5_0 Zn13_2 2.752352 1_545
Rh5_0 Zn11_0 2.752352 1_555
Rh5_1 Zn9_7 2.707879 1_445
Rh5_1 Zn9_3 2.707879 1_545
Rh5_1 Zn7_1 2.707879 1_555
Rh5_1 Zn7_5 2.707879 1_455
Rh5_1 Zn11_5 2.752352 1_455
Rh5_1 Zn13_7 2.752352 1_445
Rh5_1 Zn11_1 2.752352 1_555
Rh5_1 Zn13_3 2.752352 1_545
Rh5_2 Zn9_4 2.707879 1_455
Rh5_2 Zn9_0 2.707879 1_555
Rh5_2 Zn7_6 2.707879 1_455
Rh5_2 Zn7_2 2.707879 1_555
Rh5_2 Zn13_4 2.752352 1_455
Rh5_2 Zn13_0 2.752352 1_555
Rh5_2 Zn11_6 2.752352 1_455
Rh5_2 Zn11_2 2.752352 1_555
Rh5_3 Zn9_1 2.707879 1_555
Rh5_3 Zn9_5 2.707879 1_455
Rh5_3 Zn7_3 2.707879 1_555
Rh5_3 Zn7_7 2.707879 1_455
Rh5_3 Zn13_1 2.752352 1_555
Rh5_3 Zn13_5 2.752352 1_455
Rh5_3 Zn11_7 2.752352 1_455
Rh5_3 Zn11_3 2.752352 1_555
Rh5_4 Zn9_2 2.707879 1_545
Rh5_4 Zn9_6 2.707879 1_545
Rh5_4 Zn7_0 2.707879 1_555
Rh5_4 Zn7_4 2.707879 1_555
Rh5_4 Zn13_2 2.752352 1_545
Rh5_4 Zn11_0 2.752352 1_555
Rh5_4 Zn11_4 2.752352 1_555
Rh5_4 Zn13_6 2.752352 1_545
Rh5_5 Zn9_3 2.707879 1_545
Rh5_5 Zn9_7 2.707879 1_545
Rh5_5 Zn7_1 2.707879 1_555
Rh5_5 Zn7_5 2.707879 1_555
Rh5_5 Zn11_1 2.752352 1_555
Rh5_5 Zn13_3 2.752352 1_545
Rh5_5 Zn11_5 2.752352 1_555
Rh5_5 Zn13_7 2.752352 1_545
Rh5_6 Zn9_0 2.707879 1_555
Rh5_6 Zn9_4 2.707879 1_555
Rh5_6 Zn7_2 2.707879 1_555
Rh5_6 Zn7_6 2.707879 1_555
Rh5_6 Zn13_0 2.752352 1_555
Rh5_6 Zn13_4 2.752352 1_555
Rh5_6 Zn11_2 2.752352 1_555
Rh5_6 Zn11_6 2.752352 1_555
Rh5_7 Zn9_1 2.707879 1_555
Rh5_7 Zn9_5 2.707879 1_555
Rh5_7 Zn7_3 2.707879 1_555
Rh5_7 Zn7_7 2.707879 1_555
Rh5_7 Zn13_1 2.752352 1_555
Rh5_7 Zn13_5 2.752352 1_555
Rh5_7 Zn11_3 2.752352 1_555
Rh5_7 Zn11_7 2.752352 1_555
Rh6_0 Zn1_4 2.596832 1_455
Rh6_0 Zn1_0 2.596832 1_555
Rh6_0 Zn10_4 2.601881 1_455
Rh6_0 Zn10_0 2.601881 1_555
Rh6_0 Zn6_4 2.767544 1_455
Rh6_0 Zn6_0 2.767544 1_555
Rh6_1 Zn1_1 2.596832 1_555
Rh6_1 Zn1_5 2.596832 1_455
Rh6_1 Zn10_1 2.601881 1_555
Rh6_1 Zn10_5 2.601881 1_455
Rh6_1 Zn6_1 2.767544 1_555
Rh6_1 Zn6_5 2.767544 1_455
Rh6_2 Zn1_6 2.596832 1_455
Rh6_2 Zn1_2 2.596832 1_555
Rh6_2 Zn10_6 2.601881 1_455
Rh6_2 Zn10_2 2.601881 1_555
Rh6_2 Zn6_6 2.767544 1_455
Rh6_2 Zn6_2 2.767544 1_555
Rh6_3 Zn1_7 2.596832 1_455
Rh6_3 Zn1_3 2.596832 1_555
Rh6_3 Zn10_3 2.601881 1_555
Rh6_3 Zn10_7 2.601881 1_455
Rh6_3 Zn6_7 2.767544 1_455
Rh6_3 Zn6_3 2.767544 1_555
Rh6_4 Zn1_0 2.596832 1_555
Rh6_4 Zn1_4 2.596832 1_555
Rh6_4 Zn10_0 2.601881 1_555
Rh6_4 Zn10_4 2.601881 1_555
Rh6_4 Zn6_0 2.767544 1_555
Rh6_4 Zn6_4 2.767544 1_555
Rh6_5 Zn1_1 2.596832 1_555
Rh6_5 Zn1_5 2.596832 1_555
Rh6_5 Zn10_1 2.601881 1_555
Rh6_5 Zn10_5 2.601881 1_555
Rh6_5 Zn6_1 2.767544 1_555
Rh6_5 Zn6_5 2.767544 1_555
Rh6_6 Zn1_2 2.596832 1_555
Rh6_6 Zn1_6 2.596832 1_555
Rh6_6 Zn10_2 2.601881 1_555
Rh6_6 Zn10_6 2.601881 1_555
Rh6_6 Zn6_2 2.767544 1_555
Rh6_6 Zn6_6 2.767544 1_555
Rh6_7 Zn1_3 2.596832 1_555
Rh6_7 Zn1_7 2.596832 1_555
Rh6_7 Zn10_3 2.601881 1_555
Rh6_7 Zn10_7 2.601881 1_555
Rh6_7 Zn6_3 2.767544 1_555
Rh6_7 Zn6_7 2.767544 1_555
Rh7_0 Zn0_4 2.586393 1_455
Rh7_0 Zn0_0 2.586393 1_555
Rh7_0 Zn11_4 2.643955 1_455
Rh7_0 Zn11_0 2.643955 1_555
Rh7_0 Zn7_4 2.707011 1_455
Rh7_0 Zn7_0 2.707011 1_555
Rh7_1 Zn0_5 2.586393 1_455
Rh7_1 Zn0_1 2.586393 1_555
Rh7_1 Zn11_1 2.643955 1_555
Rh7_1 Zn11_5 2.643955 1_455
Rh7_1 Zn7_5 2.707011 1_455
Rh7_1 Zn7_1 2.707011 1_555
Rh7_2 Zn0_6 2.586393 1_455
Rh7_2 Zn0_2 2.586393 1_555
Rh7_2 Zn11_6 2.643955 1_455
Rh7_2 Zn11_2 2.643955 1_555
Rh7_2 Zn7_6 2.707011 1_455
Rh7_2 Zn7_2 2.707011 1_555
Rh7_3 Zn0_7 2.586393 1_455
Rh7_3 Zn0_3 2.586393 1_555
Rh7_3 Zn11_7 2.643955 1_455
Rh7_3 Zn11_3 2.643955 1_555
Rh7_3 Zn7_7 2.707011 1_455
Rh7_3 Zn7_3 2.707011 1_555
Rh7_4 Zn0_0 2.586393 1_555
Rh7_4 Zn0_4 2.586393 1_555
Rh7_4 Zn11_0 2.643955 1_555
Rh7_4 Zn11_4 2.643955 1_555
Rh7_4 Zn7_0 2.707011 1_555
Rh7_4 Zn7_4 2.707011 1_555
Rh7_5 Zn0_1 2.586393 1_555
Rh7_5 Zn0_5 2.586393 1_555
Rh7_5 Zn11_1 2.643955 1_555
Rh7_5 Zn11_5 2.643955 1_555
Rh7_5 Zn7_1 2.707011 1_555
Rh7_5 Zn7_5 2.707011 1_555
Rh7_6 Zn0_2 2.586393 1_555
Rh7_6 Zn0_6 2.586393 1_555
Rh7_6 Zn11_2 2.643955 1_555
Rh7_6 Zn11_6 2.643955 1_555
Rh7_6 Zn7_2 2.707011 1_555
Rh7_6 Zn7_6 2.707011 1_555
Rh7_7 Zn0_3 2.586393 1_555
Rh7_7 Zn0_7 2.586393 1_555
Rh7_7 Zn11_3 2.643955 1_555
Rh7_7 Zn11_7 2.643955 1_555
Rh7_7 Zn7_3 2.707011 1_555
Rh7_7 Zn7_7 2.707011 1_555
Rh8_0 Zn1_6 2.596832 1_455
Rh8_0 Zn1_2 2.596832 1_555
Rh8_0 Zn12_4 2.601881 1_455
Rh8_0 Zn12_0 2.601881 1_555
Rh8_0 Zn8_4 2.767544 1_455
Rh8_0 Zn8_0 2.767544 1_555
Rh8_1 Zn1_3 2.596832 1_555
Rh8_1 Zn1_7 2.596832 1_455
Rh8_1 Zn12_5 2.601881 1_455
Rh8_1 Zn12_1 2.601881 1_555
Rh8_1 Zn8_5 2.767544 1_455
Rh8_1 Zn8_1 2.767544 1_555
Rh8_2 Zn1_0 2.596832 1_565
Rh8_2 Zn1_4 2.596832 1_465
Rh8_2 Zn12_6 2.601881 1_455
Rh8_2 Zn12_2 2.601881 1_555
Rh8_2 Zn8_6 2.767544 1_455
Rh8_2 Zn8_2 2.767544 1_555
Rh8_3 Zn1_5 2.596832 1_465
Rh8_3 Zn1_1 2.596832 1_565
Rh8_3 Zn12_7 2.601881 1_455
Rh8_3 Zn12_3 2.601881 1_555
Rh8_3 Zn8_7 2.767544 1_455
Rh8_3 Zn8_3 2.767544 1_555
Rh8_4 Zn1_2 2.596832 1_555
Rh8_4 Zn1_6 2.596832 1_555
Rh8_4 Zn12_4 2.601881 1_555
Rh8_4 Zn12_0 2.601881 1_555
Rh8_4 Zn8_0 2.767544 1_555
Rh8_4 Zn8_4 2.767544 1_555
Rh8_5 Zn1_3 2.596832 1_555
Rh8_5 Zn1_7 2.596832 1_555
Rh8_5 Zn12_1 2.601881 1_555
Rh8_5 Zn12_5 2.601881 1_555
Rh8_5 Zn8_1 2.767544 1_555
Rh8_5 Zn8_5 2.767544 1_555
Rh8_6 Zn1_0 2.596832 1_565
Rh8_6 Zn1_4 2.596832 1_565
Rh8_6 Zn12_2 2.601881 1_555
Rh8_6 Zn12_6 2.601881 1_555
Rh8_6 Zn8_2 2.767544 1_555
Rh8_6 Zn8_6 2.767544 1_555
Rh8_7 Zn1_1 2.596832 1_565
Rh8_7 Zn1_5 2.596832 1_565
Rh8_7 Zn12_3 2.601881 1_555
Rh8_7 Zn12_7 2.601881 1_555
Rh8_7 Zn8_3 2.767544 1_555
Rh8_7 Zn8_7 2.767544 1_555
Rh9_0 Zn0_0 2.586393 1_555
Rh9_0 Zn0_4 2.586393 1_455
Rh9_0 Zn13_4 2.643955 1_455
Rh9_0 Zn13_0 2.643955 1_555
Rh9_0 Zn9_4 2.707011 1_455
Rh9_0 Zn9_0 2.707011 1_555
Rh9_1 Zn0_5 2.586393 1_455
Rh9_1 Zn0_1 2.586393 1_555
Rh9_1 Zn13_5 2.643955 1_455
Rh9_1 Zn13_1 2.643955 1_555
Rh9_1 Zn9_5 2.707011 1_455
Rh9_1 Zn9_1 2.707011 1_555
Rh9_2 Zn0_6 2.586393 1_455
Rh9_2 Zn0_2 2.586393 1_555
Rh9_2 Zn13_6 2.643955 1_455
Rh9_2 Zn13_2 2.643955 1_555
Rh9_2 Zn9_6 2.707011 1_455
Rh9_2 Zn9_2 2.707011 1_555
Rh9_3 Zn0_7 2.586393 1_455
Rh9_3 Zn0_3 2.586393 1_555
Rh9_3 Zn13_7 2.643955 1_455
Rh9_3 Zn13_3 2.643955 1_555
Rh9_3 Zn9_3 2.707011 1_555
Rh9_3 Zn9_7 2.707011 1_455
Rh9_4 Zn0_0 2.586393 1_555
Rh9_4 Zn0_4 2.586393 1_555
Rh9_4 Zn13_0 2.643955 1_555
Rh9_4 Zn13_4 2.643955 1_555
Rh9_4 Zn9_0 2.707011 1_555
Rh9_4 Zn9_4 2.707011 1_555
Rh9_5 Zn0_1 2.586393 1_555
Rh9_5 Zn0_5 2.586393 1_555
Rh9_5 Zn13_1 2.643955 1_555
Rh9_5 Zn13_5 2.643955 1_555
Rh9_5 Zn9_1 2.707011 1_555
Rh9_5 Zn9_5 2.707011 1_555
Rh9_6 Zn0_2 2.586393 1_555
Rh9_6 Zn0_6 2.586393 1_555
Rh9_6 Zn13_2 2.643955 1_555
Rh9_6 Zn13_6 2.643955 1_555
Rh9_6 Zn9_2 2.707011 1_555
Rh9_6 Zn9_6 2.707011 1_555
Rh9_7 Zn0_3 2.586393 1_555
Rh9_7 Zn0_7 2.586393 1_555
Rh9_7 Zn13_3 2.643955 1_555
Rh9_7 Zn13_7 2.643955 1_555
Rh9_7 Zn9_3 2.707011 1_555
Rh9_7 Zn9_7 2.707011 1_555
Rh10_0 Zn2_0 2.742442 1_555
Rh10_0 Zn2_4 2.742442 1_455
Rh10_0 Zn4_4 2.742442 1_455
Rh10_0 Zn4_0 2.742442 1_555
Rh10_1 Zn2_1 2.742442 1_555
Rh10_1 Zn2_5 2.742442 1_455
Rh10_1 Zn4_5 2.742442 1_455
Rh10_1 Zn4_1 2.742442 1_555
Rh10_2 Zn4_6 2.742442 1_455
Rh10_2 Zn2_2 2.742442 1_555
Rh10_2 Zn2_6 2.742442 1_455
Rh10_2 Zn4_2 2.742442 1_555
Rh10_3 Zn2_3 2.742442 1_555
Rh10_3 Zn2_7 2.742442 1_455
Rh10_3 Zn4_3 2.742442 1_555
Rh10_3 Zn4_7 2.742442 1_455
Rh10_4 Zn2_0 2.742442 1_555
Rh10_4 Zn4_0 2.742442 1_555
Rh10_4 Zn2_4 2.742442 1_555
Rh10_4 Zn4_4 2.742442 1_555
Rh10_5 Zn2_1 2.742442 1_555
Rh10_5 Zn4_1 2.742442 1_555
Rh10_5 Zn2_5 2.742442 1_555
Rh10_5 Zn4_5 2.742442 1_555
Rh10_6 Zn2_2 2.742442 1_555
Rh10_6 Zn4_2 2.742442 1_555
Rh10_6 Zn4_6 2.742442 1_555
Rh10_6 Zn2_6 2.742442 1_555
Rh10_7 Zn2_3 2.742442 1_555
Rh10_7 Zn4_3 2.742442 1_555
Rh10_7 Zn2_7 2.742442 1_555
Rh10_7 Zn4_7 2.742442 1_555
Rh11_0 Zn5_6 2.715872 1_445
Rh11_0 Zn5_2 2.715872 1_545
Rh11_0 Zn3_4 2.715872 1_455
Rh11_0 Zn3_0 2.715872 1_555
Rh11_1 Zn5_3 2.715872 1_545
Rh11_1 Zn5_7 2.715872 1_445
Rh11_1 Zn3_5 2.715872 1_455
Rh11_1 Zn3_1 2.715872 1_555
Rh11_2 Zn5_4 2.715872 1_455
Rh11_2 Zn5_0 2.715872 1_555
Rh11_2 Zn3_6 2.715872 1_455
Rh11_2 Zn3_2 2.715872 1_555
Rh11_3 Zn5_5 2.715872 1_455
Rh11_3 Zn3_7 2.715872 1_455
Rh11_3 Zn5_1 2.715872 1_555
Rh11_3 Zn3_3 2.715872 1_555
Rh11_4 Zn5_2 2.715872 1_545
Rh11_4 Zn5_6 2.715872 1_545
Rh11_4 Zn3_0 2.715872 1_555
Rh11_4 Zn3_4 2.715872 1_555
Rh11_5 Zn5_3 2.715872 1_545
Rh11_5 Zn5_7 2.715872 1_545
Rh11_5 Zn3_5 2.715872 1_555
Rh11_5 Zn3_1 2.715872 1_555
Rh11_6 Zn5_0 2.715872 1_555
Rh11_6 Zn3_2 2.715872 1_555
Rh11_6 Zn5_4 2.715872 1_555
Rh11_6 Zn3_6 2.715872 1_555
Rh11_7 Zn5_1 2.715872 1_555
Rh11_7 Zn5_5 2.715872 1_555
Rh11_7 Zn3_3 2.715872 1_555
Rh11_7 Zn3_7 2.715872 1_555
Rh12_0 Zn11_4 2.582332 1_455
Rh12_0 Zn11_0 2.582332 1_555
Rh12_0 Zn10_4 2.658255 1_455
Rh12_0 Zn10_0 2.658255 1_555
Rh12_0 Zn1_4 2.674596 1_455
Rh12_0 Zn1_0 2.674596 1_555
Rh12_1 Zn11_5 2.582332 1_455
Rh12_1 Zn11_1 2.582332 1_555
Rh12_1 Zn10_1 2.658255 1_555
Rh12_1 Zn10_5 2.658255 1_455
Rh12_1 Zn1_5 2.674596 1_455
Rh12_1 Zn1_1 2.674596 1_555
Rh12_2 Zn11_6 2.582332 1_455
Rh12_2 Zn11_2 2.582332 1_555
Rh12_2 Zn10_6 2.658255 1_455
Rh12_2 Zn10_2 2.658255 1_555
Rh12_2 Zn1_6 2.674596 1_455
Rh12_2 Zn1_2 2.674596 1_555
Rh12_3 Zn11_7 2.582332 1_455
Rh12_3 Zn11_3 2.582332 1_555
Rh12_3 Zn10_7 2.658255 1_455
Rh12_3 Zn10_3 2.658255 1_555
Rh12_3 Zn1_7 2.674596 1_455
Rh12_3 Zn1_3 2.674596 1_555
Rh12_4 Zn11_0 2.582332 1_555
Rh12_4 Zn11_4 2.582332 1_555
Rh12_4 Zn10_0 2.658255 1_555
Rh12_4 Zn10_4 2.658255 1_555
Rh12_4 Zn1_0 2.674596 1_555
Rh12_4 Zn1_4 2.674596 1_555
Rh12_5 Zn11_1 2.582332 1_555
Rh12_5 Zn11_5 2.582332 1_555
Rh12_5 Zn10_1 2.658255 1_555
Rh12_5 Zn10_5 2.658255 1_555
Rh12_5 Zn1_1 2.674596 1_555
Rh12_5 Zn1_5 2.674596 1_555
Rh12_6 Zn11_2 2.582332 1_555
Rh12_6 Zn11_6 2.582332 1_555
Rh12_6 Zn10_2 2.658255 1_555
Rh12_6 Zn10_6 2.658255 1_555
Rh12_6 Zn1_2 2.674596 1_555
Rh12_6 Zn1_6 2.674596 1_555
Rh12_7 Zn11_3 2.582332 1_555
Rh12_7 Zn11_7 2.582332 1_555
Rh12_7 Zn10_3 2.658255 1_555
Rh12_7 Zn10_7 2.658255 1_555
Rh12_7 Zn1_3 2.674596 1_555
Rh12_7 Zn1_7 2.674596 1_555
Rh13_0 Zn10_4 2.581535 1_455
Rh13_0 Zn10_0 2.581535 1_555
Rh13_0 Zn11_4 2.627908 1_455
Rh13_0 Zn11_0 2.627908 1_555
Rh13_0 Zn0_4 2.654404 1_455
Rh13_0 Zn0_0 2.654404 1_555
Rh13_1 Zn10_5 2.581535 1_455
Rh13_1 Zn10_1 2.581535 1_555
Rh13_1 Zn11_5 2.627908 1_455
Rh13_1 Zn11_1 2.627908 1_555
Rh13_1 Zn0_5 2.654404 1_455
Rh13_1 Zn0_1 2.654404 1_555
Rh13_2 Zn10_6 2.581535 1_455
Rh13_2 Zn10_2 2.581535 1_555
Rh13_2 Zn11_6 2.627908 1_455
Rh13_2 Zn11_2 2.627908 1_555
Rh13_2 Zn0_6 2.654404 1_455
Rh13_2 Zn0_2 2.654404 1_555
Rh13_3 Zn10_7 2.581535 1_455
Rh13_3 Zn10_3 2.581535 1_555
Rh13_3 Zn11_7 2.627908 1_455
Rh13_3 Zn11_3 2.627908 1_555
Rh13_3 Zn0_7 2.654404 1_455
Rh13_3 Zn0_3 2.654404 1_555
Rh13_4 Zn10_0 2.581535 1_555
Rh13_4 Zn10_4 2.581535 1_555
Rh13_4 Zn11_0 2.627908 1_555
Rh13_4 Zn11_4 2.627908 1_555
Rh13_4 Zn0_0 2.654404 1_555
Rh13_4 Zn0_4 2.654404 1_555
Rh13_5 Zn10_5 2.581535 1_555
Rh13_5 Zn10_1 2.581535 1_555
Rh13_5 Zn11_1 2.627908 1_555
Rh13_5 Zn11_5 2.627908 1_555
Rh13_5 Zn0_1 2.654404 1_555
Rh13_5 Zn0_5 2.654404 1_555
Rh13_6 Zn10_2 2.581535 1_555
Rh13_6 Zn10_6 2.581535 1_555
Rh13_6 Zn11_2 2.627908 1_555
Rh13_6 Zn11_6 2.627908 1_555
Rh13_6 Zn0_2 2.654404 1_555
Rh13_6 Zn0_6 2.654404 1_555
Rh13_7 Zn10_3 2.581535 1_555
Rh13_7 Zn10_7 2.581535 1_555
Rh13_7 Zn11_7 2.627908 1_555
Rh13_7 Zn11_3 2.627908 1_555
Rh13_7 Zn0_3 2.654404 1_555
Rh13_7 Zn0_7 2.654404 1_555
Rh14_0 Zn13_0 2.582332 1_555
Rh14_0 Zn13_4 2.582332 1_455
Rh14_0 Zn12_4 2.658255 1_455
Rh14_0 Zn12_0 2.658255 1_555
Rh14_0 Zn1_6 2.674596 1_455
Rh14_0 Zn1_2 2.674596 1_555
Rh14_1 Zn13_5 2.582332 1_455
Rh14_1 Zn13_1 2.582332 1_555
Rh14_1 Zn12_5 2.658255 1_455
Rh14_1 Zn12_1 2.658255 1_555
Rh14_1 Zn1_7 2.674596 1_455
Rh14_1 Zn1_3 2.674596 1_555
Rh14_2 Zn13_6 2.582332 1_455
Rh14_2 Zn13_2 2.582332 1_555
Rh14_2 Zn12_6 2.658255 1_455
Rh14_2 Zn12_2 2.658255 1_555
Rh14_2 Zn1_4 2.674596 1_465
Rh14_2 Zn1_0 2.674596 1_565
Rh14_3 Zn13_7 2.582332 1_455
Rh14_3 Zn13_3 2.582332 1_555
Rh14_3 Zn12_7 2.658255 1_455
Rh14_3 Zn12_3 2.658255 1_555
Rh14_3 Zn1_5 2.674596 1_465
Rh14_3 Zn1_1 2.674596 1_565
Rh14_4 Zn13_0 2.582332 1_555
Rh14_4 Zn13_4 2.582332 1_555
Rh14_4 Zn12_0 2.658255 1_555
Rh14_4 Zn12_4 2.658255 1_555
Rh14_4 Zn1_2 2.674596 1_555
Rh14_4 Zn1_6 2.674596 1_555
Rh14_5 Zn13_1 2.582332 1_555
Rh14_5 Zn13_5 2.582332 1_555
Rh14_5 Zn12_1 2.658255 1_555
Rh14_5 Zn12_5 2.658255 1_555
Rh14_5 Zn1_3 2.674596 1_555
Rh14_5 Zn1_7 2.674596 1_555
Rh14_6 Zn13_2 2.582332 1_555
Rh14_6 Zn13_6 2.582332 1_555
Rh14_6 Zn12_2 2.658255 1_555
Rh14_6 Zn12_6 2.658255 1_555
Rh14_6 Zn1_0 2.674596 1_565
Rh14_6 Zn1_4 2.674596 1_565
Rh14_7 Zn13_3 2.582332 1_555
Rh14_7 Zn13_7 2.582332 1_555
Rh14_7 Zn12_3 2.658255 1_555
Rh14_7 Zn12_7 2.658255 1_555
Rh14_7 Zn1_1 2.674596 1_565
Rh14_7 Zn1_5 2.674596 1_565
Rh15_0 Zn12_4 2.581535 1_455
Rh15_0 Zn12_0 2.581535 1_555
Rh15_0 Zn13_0 2.627908 1_555
Rh15_0 Zn13_4 2.627908 1_455
Rh15_0 Zn0_4 2.654404 1_455
Rh15_0 Zn0_0 2.654404 1_555
Rh15_1 Zn12_5 2.581535 1_455
Rh15_1 Zn12_1 2.581535 1_555
Rh15_1 Zn13_5 2.627908 1_455
Rh15_1 Zn13_1 2.627908 1_555
Rh15_1 Zn0_5 2.654404 1_455
Rh15_1 Zn0_1 2.654404 1_555
Rh15_2 Zn12_6 2.581535 1_455
Rh15_2 Zn12_2 2.581535 1_555
Rh15_2 Zn13_2 2.627908 1_555
Rh15_2 Zn13_6 2.627908 1_455
Rh15_2 Zn0_6 2.654404 1_455
Rh15_2 Zn0_2 2.654404 1_555
Rh15_3 Zn12_7 2.581535 1_455
Rh15_3 Zn12_3 2.581535 1_555
Rh15_3 Zn13_7 2.627908 1_455
Rh15_3 Zn13_3 2.627908 1_555
Rh15_3 Zn0_7 2.654404 1_455
Rh15_3 Zn0_3 2.654404 1_555
Rh15_4 Zn12_0 2.581535 1_555
Rh15_4 Zn12_4 2.581535 1_555
Rh15_4 Zn13_0 2.627908 1_555
Rh15_4 Zn13_4 2.627908 1_555
Rh15_4 Zn0_0 2.654404 1_555
Rh15_4 Zn0_4 2.654404 1_555
Rh15_5 Zn12_5 2.581535 1_555
Rh15_5 Zn12_1 2.581535 1_555
Rh15_5 Zn13_1 2.627908 1_555
Rh15_5 Zn13_5 2.627908 1_555
Rh15_5 Zn0_1 2.654404 1_555
Rh15_5 Zn0_5 2.654404 1_555
Rh15_6 Zn12_2 2.581535 1_555
Rh15_6 Zn12_6 2.581535 1_555
Rh15_6 Zn13_2 2.627908 1_555
Rh15_6 Zn13_6 2.627908 1_555
Rh15_6 Zn0_2 2.654404 1_555
Rh15_6 Zn0_6 2.654404 1_555
Rh15_7 Zn12_3 2.581535 1_555
Rh15_7 Zn12_7 2.581535 1_555
Rh15_7 Zn13_7 2.627908 1_555
Rh15_7 Zn13_3 2.627908 1_555
Rh15_7 Zn0_3 2.654404 1_555
Rh15_7 Zn0_7 2.654404 1_555
Rh16_0 Zn6_4 2.610608 1_455
Rh16_0 Zn8_0 2.610608 1_555
Rh16_0 Zn8_4 2.610608 1_455
Rh16_0 Zn6_0 2.610608 1_555
Rh16_0 Zn2_5 2.617750 1_455
Rh16_0 Zn4_5 2.617750 1_455
Rh16_0 Zn2_1 2.617750 1_555
Rh16_0 Zn4_1 2.617750 1_555
Rh16_1 Zn6_5 2.610608 1_455
Rh16_1 Zn8_1 2.610608 1_555
Rh16_1 Zn8_5 2.610608 1_455
Rh16_1 Zn6_1 2.610608 1_555
Rh16_1 Zn2_4 2.617750 1_456
Rh16_1 Zn2_0 2.617750 1_556
Rh16_1 Zn4_4 2.617750 1_456
Rh16_1 Zn4_0 2.617750 1_556
Rh16_2 Zn6_6 2.610608 1_455
Rh16_2 Zn6_2 2.610608 1_555
Rh16_2 Zn8_2 2.610608 1_555
Rh16_2 Zn8_6 2.610608 1_455
Rh16_2 Zn2_7 2.617750 1_455
Rh16_2 Zn4_7 2.617750 1_455
Rh16_2 Zn2_3 2.617750 1_555
Rh16_2 Zn4_3 2.617750 1_555
Rh16_3 Zn6_7 2.610608 1_455
Rh16_3 Zn6_3 2.610608 1_555
Rh16_3 Zn8_7 2.610608 1_455
Rh16_3 Zn8_3 2.610608 1_555
Rh16_3 Zn2_6 2.617750 1_456
Rh16_3 Zn4_6 2.617750 1_456
Rh16_3 Zn2_2 2.617750 1_556
Rh16_3 Zn4_2 2.617750 1_556
Rh16_4 Zn8_0 2.610608 1_555
Rh16_4 Zn6_0 2.610608 1_555
Rh16_4 Zn8_4 2.610608 1_555
Rh16_4 Zn6_4 2.610608 1_555
Rh16_4 Zn2_1 2.617750 1_555
Rh16_4 Zn4_1 2.617750 1_555
Rh16_4 Zn2_5 2.617750 1_555
Rh16_4 Zn4_5 2.617750 1_555
Rh16_5 Zn8_1 2.610608 1_555
Rh16_5 Zn6_1 2.610608 1_555
Rh16_5 Zn8_5 2.610608 1_555
Rh16_5 Zn6_5 2.610608 1_555
Rh16_5 Zn2_0 2.617750 1_556
Rh16_5 Zn4_0 2.617750 1_556
Rh16_5 Zn2_4 2.617750 1_556
Rh16_5 Zn4_4 2.617750 1_556
Rh16_6 Zn6_2 2.610608 1_555
Rh16_6 Zn6_6 2.610608 1_555
Rh16_6 Zn8_2 2.610608 1_555
Rh16_6 Zn8_6 2.610608 1_555
Rh16_6 Zn2_3 2.617750 1_555
Rh16_6 Zn4_3 2.617750 1_555
Rh16_6 Zn2_7 2.617750 1_555
Rh16_6 Zn4_7 2.617750 1_555
Rh16_7 Zn6_3 2.610608 1_555
Rh16_7 Zn6_7 2.610608 1_555
Rh16_7 Zn8_3 2.610608 1_555
Rh16_7 Zn8_7 2.610608 1_555
Rh16_7 Zn2_2 2.617750 1_556
Rh16_7 Zn4_2 2.617750 1_556
Rh16_7 Zn2_6 2.617750 1_556
Rh16_7 Zn4_6 2.617750 1_556
