# generated using pymatgen
data_Ti9Co2(B4Ru9)2
_symmetry_space_group_name_H-M   'P 1'
_cell_length_a   35.22030800
_cell_length_b   35.22030800
_cell_length_c   5.98471400
_cell_angle_alpha   90.00000000
_cell_angle_beta   90.00000000
_cell_angle_gamma   90.00000000
_symmetry_Int_Tables_number   1
_chemical_formula_structural   Ti9Co2(B4Ru9)2
_chemical_formula_sum   'Ti144 Co32 B128 Ru288'
_cell_volume   7423.85874781
_cell_formula_units_Z   16
loop_
 _symmetry_equiv_pos_site_id
 _symmetry_equiv_pos_as_xyz
  1  'x, y, z'
loop_
 _atom_site_type_symbol
 _atom_site_label
 _atom_site_symmetry_multiplicity
 _atom_site_fract_x
 _atom_site_fract_y
 _atom_site_fract_z
 _atom_site_occupancy
  Ti  Ti0_0  1  0.40182850  0.15182850  0.25000000  1
  Ti  Ti0_1  1  0.40182850  0.15182850  0.75000000  1
  Ti  Ti0_2  1  0.40182850  0.65182850  0.25000000  1
  Ti  Ti0_3  1  0.40182850  0.65182850  0.75000000  1
  Ti  Ti0_4  1  0.90182850  0.15182850  0.25000000  1
  Ti  Ti0_5  1  0.90182850  0.15182850  0.75000000  1
  Ti  Ti0_6  1  0.90182850  0.65182850  0.25000000  1
  Ti  Ti0_7  1  0.90182850  0.65182850  0.75000000  1
  Ti  Ti1_0  1  0.09817150  0.34817150  0.25000000  1
  Ti  Ti1_1  1  0.09817150  0.34817150  0.75000000  1
  Ti  Ti1_2  1  0.09817150  0.84817150  0.25000000  1
  Ti  Ti1_3  1  0.09817150  0.84817150  0.75000000  1
  Ti  Ti1_4  1  0.59817150  0.34817150  0.25000000  1
  Ti  Ti1_5  1  0.59817150  0.34817150  0.75000000  1
  Ti  Ti1_6  1  0.59817150  0.84817150  0.25000000  1
  Ti  Ti1_7  1  0.59817150  0.84817150  0.75000000  1
  Ti  Ti2_0  1  0.15182850  0.09817150  0.25000000  1
  Ti  Ti2_1  1  0.15182850  0.09817150  0.75000000  1
  Ti  Ti2_2  1  0.15182850  0.59817150  0.25000000  1
  Ti  Ti2_3  1  0.15182850  0.59817150  0.75000000  1
  Ti  Ti2_4  1  0.65182850  0.09817150  0.25000000  1
  Ti  Ti2_5  1  0.65182850  0.09817150  0.75000000  1
  Ti  Ti2_6  1  0.65182850  0.59817150  0.25000000  1
  Ti  Ti2_7  1  0.65182850  0.59817150  0.75000000  1
  Ti  Ti3_0  1  0.34817150  0.40182850  0.25000000  1
  Ti  Ti3_1  1  0.34817150  0.40182850  0.75000000  1
  Ti  Ti3_2  1  0.34817150  0.90182850  0.25000000  1
  Ti  Ti3_3  1  0.34817150  0.90182850  0.75000000  1
  Ti  Ti3_4  1  0.84817150  0.40182850  0.25000000  1
  Ti  Ti3_5  1  0.84817150  0.40182850  0.75000000  1
  Ti  Ti3_6  1  0.84817150  0.90182850  0.25000000  1
  Ti  Ti3_7  1  0.84817150  0.90182850  0.75000000  1
  Ti  Ti4_0  1  0.25000000  0.25000000  0.25000000  1
  Ti  Ti4_1  1  0.25000000  0.25000000  0.75000000  1
  Ti  Ti4_2  1  0.25000000  0.75000000  0.25000000  1
  Ti  Ti4_3  1  0.25000000  0.75000000  0.75000000  1
  Ti  Ti4_4  1  0.75000000  0.25000000  0.25000000  1
  Ti  Ti4_5  1  0.75000000  0.25000000  0.75000000  1
  Ti  Ti4_6  1  0.75000000  0.75000000  0.25000000  1
  Ti  Ti4_7  1  0.75000000  0.75000000  0.75000000  1
  Ti  Ti5_0  1  0.00000000  0.00000000  0.25000000  1
  Ti  Ti5_1  1  0.00000000  0.00000000  0.75000000  1
  Ti  Ti5_2  1  0.00000000  0.50000000  0.25000000  1
  Ti  Ti5_3  1  0.00000000  0.50000000  0.75000000  1
  Ti  Ti5_4  1  0.50000000  0.00000000  0.25000000  1
  Ti  Ti5_5  1  0.50000000  0.00000000  0.75000000  1
  Ti  Ti5_6  1  0.50000000  0.50000000  0.25000000  1
  Ti  Ti5_7  1  0.50000000  0.50000000  0.75000000  1
  Ti  Ti6_0  1  0.34291350  0.26743450  0.25000000  1
  Ti  Ti6_1  1  0.34291350  0.26743450  0.75000000  1
  Ti  Ti6_2  1  0.34291350  0.76743450  0.25000000  1
  Ti  Ti6_3  1  0.34291350  0.76743450  0.75000000  1
  Ti  Ti6_4  1  0.84291350  0.26743450  0.25000000  1
  Ti  Ti6_5  1  0.84291350  0.26743450  0.75000000  1
  Ti  Ti6_6  1  0.84291350  0.76743450  0.25000000  1
  Ti  Ti6_7  1  0.84291350  0.76743450  0.75000000  1
  Ti  Ti7_0  1  0.15708650  0.23256550  0.25000000  1
  Ti  Ti7_1  1  0.15708650  0.23256550  0.75000000  1
  Ti  Ti7_2  1  0.15708650  0.73256550  0.25000000  1
  Ti  Ti7_3  1  0.15708650  0.73256550  0.75000000  1
  Ti  Ti7_4  1  0.65708650  0.23256550  0.25000000  1
  Ti  Ti7_5  1  0.65708650  0.23256550  0.75000000  1
  Ti  Ti7_6  1  0.65708650  0.73256550  0.25000000  1
  Ti  Ti7_7  1  0.65708650  0.73256550  0.75000000  1
  Ti  Ti8_0  1  0.09291350  0.48256550  0.25000000  1
  Ti  Ti8_1  1  0.09291350  0.48256550  0.75000000  1
  Ti  Ti8_2  1  0.09291350  0.98256550  0.25000000  1
  Ti  Ti8_3  1  0.09291350  0.98256550  0.75000000  1
  Ti  Ti8_4  1  0.59291350  0.48256550  0.25000000  1
  Ti  Ti8_5  1  0.59291350  0.48256550  0.75000000  1
  Ti  Ti8_6  1  0.59291350  0.98256550  0.25000000  1
  Ti  Ti8_7  1  0.59291350  0.98256550  0.75000000  1
  Ti  Ti9_0  1  0.40708650  0.01743450  0.25000000  1
  Ti  Ti9_1  1  0.40708650  0.01743450  0.75000000  1
  Ti  Ti9_2  1  0.40708650  0.51743450  0.25000000  1
  Ti  Ti9_3  1  0.40708650  0.51743450  0.75000000  1
  Ti  Ti9_4  1  0.90708650  0.01743450  0.25000000  1
  Ti  Ti9_5  1  0.90708650  0.01743450  0.75000000  1
  Ti  Ti9_6  1  0.90708650  0.51743450  0.25000000  1
  Ti  Ti9_7  1  0.90708650  0.51743450  0.75000000  1
  Ti  Ti10_0  1  0.23256550  0.34291350  0.25000000  1
  Ti  Ti10_1  1  0.23256550  0.34291350  0.75000000  1
  Ti  Ti10_2  1  0.23256550  0.84291350  0.25000000  1
  Ti  Ti10_3  1  0.23256550  0.84291350  0.75000000  1
  Ti  Ti10_4  1  0.73256550  0.34291350  0.25000000  1
  Ti  Ti10_5  1  0.73256550  0.34291350  0.75000000  1
  Ti  Ti10_6  1  0.73256550  0.84291350  0.25000000  1
  Ti  Ti10_7  1  0.73256550  0.84291350  0.75000000  1
  Ti  Ti11_0  1  0.26743450  0.15708650  0.25000000  1
  Ti  Ti11_1  1  0.26743450  0.15708650  0.75000000  1
  Ti  Ti11_2  1  0.26743450  0.65708650  0.25000000  1
  Ti  Ti11_3  1  0.26743450  0.65708650  0.75000000  1
  Ti  Ti11_4  1  0.76743450  0.15708650  0.25000000  1
  Ti  Ti11_5  1  0.76743450  0.15708650  0.75000000  1
  Ti  Ti11_6  1  0.76743450  0.65708650  0.25000000  1
  Ti  Ti11_7  1  0.76743450  0.65708650  0.75000000  1
  Ti  Ti12_0  1  0.01743450  0.09291350  0.25000000  1
  Ti  Ti12_1  1  0.01743450  0.09291350  0.75000000  1
  Ti  Ti12_2  1  0.01743450  0.59291350  0.25000000  1
  Ti  Ti12_3  1  0.01743450  0.59291350  0.75000000  1
  Ti  Ti12_4  1  0.51743450  0.09291350  0.25000000  1
  Ti  Ti12_5  1  0.51743450  0.09291350  0.75000000  1
  Ti  Ti12_6  1  0.51743450  0.59291350  0.25000000  1
  Ti  Ti12_7  1  0.51743450  0.59291350  0.75000000  1
  Ti  Ti13_0  1  0.48256550  0.40708650  0.25000000  1
  Ti  Ti13_1  1  0.48256550  0.40708650  0.75000000  1
  Ti  Ti13_2  1  0.48256550  0.90708650  0.25000000  1
  Ti  Ti13_3  1  0.48256550  0.90708650  0.75000000  1
  Ti  Ti13_4  1  0.98256550  0.40708650  0.25000000  1
  Ti  Ti13_5  1  0.98256550  0.40708650  0.75000000  1
  Ti  Ti13_6  1  0.98256550  0.90708650  0.25000000  1
  Ti  Ti13_7  1  0.98256550  0.90708650  0.75000000  1
  Ti  Ti14_0  1  0.41403850  0.33596150  0.25000000  1
  Ti  Ti14_1  1  0.41403850  0.33596150  0.75000000  1
  Ti  Ti14_2  1  0.41403850  0.83596150  0.25000000  1
  Ti  Ti14_3  1  0.41403850  0.83596150  0.75000000  1
  Ti  Ti14_4  1  0.91403850  0.33596150  0.25000000  1
  Ti  Ti14_5  1  0.91403850  0.33596150  0.75000000  1
  Ti  Ti14_6  1  0.91403850  0.83596150  0.25000000  1
  Ti  Ti14_7  1  0.91403850  0.83596150  0.75000000  1
  Ti  Ti15_0  1  0.08596150  0.16403850  0.25000000  1
  Ti  Ti15_1  1  0.08596150  0.16403850  0.75000000  1
  Ti  Ti15_2  1  0.08596150  0.66403850  0.25000000  1
  Ti  Ti15_3  1  0.08596150  0.66403850  0.75000000  1
  Ti  Ti15_4  1  0.58596150  0.16403850  0.25000000  1
  Ti  Ti15_5  1  0.58596150  0.16403850  0.75000000  1
  Ti  Ti15_6  1  0.58596150  0.66403850  0.25000000  1
  Ti  Ti15_7  1  0.58596150  0.66403850  0.75000000  1
  Ti  Ti16_0  1  0.16403850  0.41403850  0.25000000  1
  Ti  Ti16_1  1  0.16403850  0.41403850  0.75000000  1
  Ti  Ti16_2  1  0.16403850  0.91403850  0.25000000  1
  Ti  Ti16_3  1  0.16403850  0.91403850  0.75000000  1
  Ti  Ti16_4  1  0.66403850  0.41403850  0.25000000  1
  Ti  Ti16_5  1  0.66403850  0.41403850  0.75000000  1
  Ti  Ti16_6  1  0.66403850  0.91403850  0.25000000  1
  Ti  Ti16_7  1  0.66403850  0.91403850  0.75000000  1
  Ti  Ti17_0  1  0.33596150  0.08596150  0.25000000  1
  Ti  Ti17_1  1  0.33596150  0.08596150  0.75000000  1
  Ti  Ti17_2  1  0.33596150  0.58596150  0.25000000  1
  Ti  Ti17_3  1  0.33596150  0.58596150  0.75000000  1
  Ti  Ti17_4  1  0.83596150  0.08596150  0.25000000  1
  Ti  Ti17_5  1  0.83596150  0.08596150  0.75000000  1
  Ti  Ti17_6  1  0.83596150  0.58596150  0.25000000  1
  Ti  Ti17_7  1  0.83596150  0.58596150  0.75000000  1
  Co  Co0_0  1  0.47554900  0.27445100  0.25000000  1
  Co  Co0_1  1  0.47554900  0.27445100  0.75000000  1
  Co  Co0_2  1  0.47554900  0.77445100  0.25000000  1
  Co  Co0_3  1  0.47554900  0.77445100  0.75000000  1
  Co  Co0_4  1  0.97554900  0.27445100  0.25000000  1
  Co  Co0_5  1  0.97554900  0.27445100  0.75000000  1
  Co  Co0_6  1  0.97554900  0.77445100  0.25000000  1
  Co  Co0_7  1  0.97554900  0.77445100  0.75000000  1
  Co  Co1_0  1  0.02445100  0.22554900  0.25000000  1
  Co  Co1_1  1  0.02445100  0.22554900  0.75000000  1
  Co  Co1_2  1  0.02445100  0.72554900  0.25000000  1
  Co  Co1_3  1  0.02445100  0.72554900  0.75000000  1
  Co  Co1_4  1  0.52445100  0.22554900  0.25000000  1
  Co  Co1_5  1  0.52445100  0.22554900  0.75000000  1
  Co  Co1_6  1  0.52445100  0.72554900  0.25000000  1
  Co  Co1_7  1  0.52445100  0.72554900  0.75000000  1
  Co  Co2_0  1  0.22554900  0.47554900  0.25000000  1
  Co  Co2_1  1  0.22554900  0.47554900  0.75000000  1
  Co  Co2_2  1  0.22554900  0.97554900  0.25000000  1
  Co  Co2_3  1  0.22554900  0.97554900  0.75000000  1
  Co  Co2_4  1  0.72554900  0.47554900  0.25000000  1
  Co  Co2_5  1  0.72554900  0.47554900  0.75000000  1
  Co  Co2_6  1  0.72554900  0.97554900  0.25000000  1
  Co  Co2_7  1  0.72554900  0.97554900  0.75000000  1
  Co  Co3_0  1  0.27445100  0.02445100  0.25000000  1
  Co  Co3_1  1  0.27445100  0.02445100  0.75000000  1
  Co  Co3_2  1  0.27445100  0.52445100  0.25000000  1
  Co  Co3_3  1  0.27445100  0.52445100  0.75000000  1
  Co  Co3_4  1  0.77445100  0.02445100  0.25000000  1
  Co  Co3_5  1  0.77445100  0.02445100  0.75000000  1
  Co  Co3_6  1  0.77445100  0.52445100  0.25000000  1
  Co  Co3_7  1  0.77445100  0.52445100  0.75000000  1
  B  B0_0  1  0.33500600  0.18939200  0.25000000  1
  B  B0_1  1  0.33500600  0.18939200  0.75000000  1
  B  B0_2  1  0.33500600  0.68939200  0.25000000  1
  B  B0_3  1  0.33500600  0.68939200  0.75000000  1
  B  B0_4  1  0.83500600  0.18939200  0.25000000  1
  B  B0_5  1  0.83500600  0.18939200  0.75000000  1
  B  B0_6  1  0.83500600  0.68939200  0.25000000  1
  B  B0_7  1  0.83500600  0.68939200  0.75000000  1
  B  B1_0  1  0.16499400  0.31060800  0.25000000  1
  B  B1_1  1  0.16499400  0.31060800  0.75000000  1
  B  B1_2  1  0.16499400  0.81060800  0.25000000  1
  B  B1_3  1  0.16499400  0.81060800  0.75000000  1
  B  B1_4  1  0.66499400  0.31060800  0.25000000  1
  B  B1_5  1  0.66499400  0.31060800  0.75000000  1
  B  B1_6  1  0.66499400  0.81060800  0.25000000  1
  B  B1_7  1  0.66499400  0.81060800  0.75000000  1
  B  B2_0  1  0.08500600  0.06060800  0.25000000  1
  B  B2_1  1  0.08500600  0.06060800  0.75000000  1
  B  B2_2  1  0.08500600  0.56060800  0.25000000  1
  B  B2_3  1  0.08500600  0.56060800  0.75000000  1
  B  B2_4  1  0.58500600  0.06060800  0.25000000  1
  B  B2_5  1  0.58500600  0.06060800  0.75000000  1
  B  B2_6  1  0.58500600  0.56060800  0.25000000  1
  B  B2_7  1  0.58500600  0.56060800  0.75000000  1
  B  B3_0  1  0.41499400  0.43939200  0.25000000  1
  B  B3_1  1  0.41499400  0.43939200  0.75000000  1
  B  B3_2  1  0.41499400  0.93939200  0.25000000  1
  B  B3_3  1  0.41499400  0.93939200  0.75000000  1
  B  B3_4  1  0.91499400  0.43939200  0.25000000  1
  B  B3_5  1  0.91499400  0.43939200  0.75000000  1
  B  B3_6  1  0.91499400  0.93939200  0.25000000  1
  B  B3_7  1  0.91499400  0.93939200  0.75000000  1
  B  B4_0  1  0.31060800  0.33500600  0.25000000  1
  B  B4_1  1  0.31060800  0.33500600  0.75000000  1
  B  B4_2  1  0.31060800  0.83500600  0.25000000  1
  B  B4_3  1  0.31060800  0.83500600  0.75000000  1
  B  B4_4  1  0.81060800  0.33500600  0.25000000  1
  B  B4_5  1  0.81060800  0.33500600  0.75000000  1
  B  B4_6  1  0.81060800  0.83500600  0.25000000  1
  B  B4_7  1  0.81060800  0.83500600  0.75000000  1
  B  B5_0  1  0.18939200  0.16499400  0.25000000  1
  B  B5_1  1  0.18939200  0.16499400  0.75000000  1
  B  B5_2  1  0.18939200  0.66499400  0.25000000  1
  B  B5_3  1  0.18939200  0.66499400  0.75000000  1
  B  B5_4  1  0.68939200  0.16499400  0.25000000  1
  B  B5_5  1  0.68939200  0.16499400  0.75000000  1
  B  B5_6  1  0.68939200  0.66499400  0.25000000  1
  B  B5_7  1  0.68939200  0.66499400  0.75000000  1
  B  B6_0  1  0.43939200  0.08500600  0.25000000  1
  B  B6_1  1  0.43939200  0.08500600  0.75000000  1
  B  B6_2  1  0.43939200  0.58500600  0.25000000  1
  B  B6_3  1  0.43939200  0.58500600  0.75000000  1
  B  B6_4  1  0.93939200  0.08500600  0.25000000  1
  B  B6_5  1  0.93939200  0.08500600  0.75000000  1
  B  B6_6  1  0.93939200  0.58500600  0.25000000  1
  B  B6_7  1  0.93939200  0.58500600  0.75000000  1
  B  B7_0  1  0.06060800  0.41499400  0.25000000  1
  B  B7_1  1  0.06060800  0.41499400  0.75000000  1
  B  B7_2  1  0.06060800  0.91499400  0.25000000  1
  B  B7_3  1  0.06060800  0.91499400  0.75000000  1
  B  B7_4  1  0.56060800  0.41499400  0.25000000  1
  B  B7_5  1  0.56060800  0.41499400  0.75000000  1
  B  B7_6  1  0.56060800  0.91499400  0.25000000  1
  B  B7_7  1  0.56060800  0.91499400  0.75000000  1
  B  B8_0  1  0.41828150  0.23134700  0.25000000  1
  B  B8_1  1  0.41828150  0.23134700  0.75000000  1
  B  B8_2  1  0.41828150  0.73134700  0.25000000  1
  B  B8_3  1  0.41828150  0.73134700  0.75000000  1
  B  B8_4  1  0.91828150  0.23134700  0.25000000  1
  B  B8_5  1  0.91828150  0.23134700  0.75000000  1
  B  B8_6  1  0.91828150  0.73134700  0.25000000  1
  B  B8_7  1  0.91828150  0.73134700  0.75000000  1
  B  B9_0  1  0.08171850  0.26865300  0.25000000  1
  B  B9_1  1  0.08171850  0.26865300  0.75000000  1
  B  B9_2  1  0.08171850  0.76865300  0.25000000  1
  B  B9_3  1  0.08171850  0.76865300  0.75000000  1
  B  B9_4  1  0.58171850  0.26865300  0.25000000  1
  B  B9_5  1  0.58171850  0.26865300  0.75000000  1
  B  B9_6  1  0.58171850  0.76865300  0.25000000  1
  B  B9_7  1  0.58171850  0.76865300  0.75000000  1
  B  B10_0  1  0.16828150  0.01865300  0.25000000  1
  B  B10_1  1  0.16828150  0.01865300  0.75000000  1
  B  B10_2  1  0.16828150  0.51865300  0.25000000  1
  B  B10_3  1  0.16828150  0.51865300  0.75000000  1
  B  B10_4  1  0.66828150  0.01865300  0.25000000  1
  B  B10_5  1  0.66828150  0.01865300  0.75000000  1
  B  B10_6  1  0.66828150  0.51865300  0.25000000  1
  B  B10_7  1  0.66828150  0.51865300  0.75000000  1
  B  B11_0  1  0.33171850  0.48134700  0.25000000  1
  B  B11_1  1  0.33171850  0.48134700  0.75000000  1
  B  B11_2  1  0.33171850  0.98134700  0.25000000  1
  B  B11_3  1  0.33171850  0.98134700  0.75000000  1
  B  B11_4  1  0.83171850  0.48134700  0.25000000  1
  B  B11_5  1  0.83171850  0.48134700  0.75000000  1
  B  B11_6  1  0.83171850  0.98134700  0.25000000  1
  B  B11_7  1  0.83171850  0.98134700  0.75000000  1
  B  B12_0  1  0.26865300  0.41828150  0.25000000  1
  B  B12_1  1  0.26865300  0.41828150  0.75000000  1
  B  B12_2  1  0.26865300  0.91828150  0.25000000  1
  B  B12_3  1  0.26865300  0.91828150  0.75000000  1
  B  B12_4  1  0.76865300  0.41828150  0.25000000  1
  B  B12_5  1  0.76865300  0.41828150  0.75000000  1
  B  B12_6  1  0.76865300  0.91828150  0.25000000  1
  B  B12_7  1  0.76865300  0.91828150  0.75000000  1
  B  B13_0  1  0.23134700  0.08171850  0.25000000  1
  B  B13_1  1  0.23134700  0.08171850  0.75000000  1
  B  B13_2  1  0.23134700  0.58171850  0.25000000  1
  B  B13_3  1  0.23134700  0.58171850  0.75000000  1
  B  B13_4  1  0.73134700  0.08171850  0.25000000  1
  B  B13_5  1  0.73134700  0.08171850  0.75000000  1
  B  B13_6  1  0.73134700  0.58171850  0.25000000  1
  B  B13_7  1  0.73134700  0.58171850  0.75000000  1
  B  B14_0  1  0.48134700  0.16828150  0.25000000  1
  B  B14_1  1  0.48134700  0.16828150  0.75000000  1
  B  B14_2  1  0.48134700  0.66828150  0.25000000  1
  B  B14_3  1  0.48134700  0.66828150  0.75000000  1
  B  B14_4  1  0.98134700  0.16828150  0.25000000  1
  B  B14_5  1  0.98134700  0.16828150  0.75000000  1
  B  B14_6  1  0.98134700  0.66828150  0.25000000  1
  B  B14_7  1  0.98134700  0.66828150  0.75000000  1
  B  B15_0  1  0.01865300  0.33171850  0.25000000  1
  B  B15_1  1  0.01865300  0.33171850  0.75000000  1
  B  B15_2  1  0.01865300  0.83171850  0.25000000  1
  B  B15_3  1  0.01865300  0.83171850  0.75000000  1
  B  B15_4  1  0.51865300  0.33171850  0.25000000  1
  B  B15_5  1  0.51865300  0.33171850  0.75000000  1
  B  B15_6  1  0.51865300  0.83171850  0.25000000  1
  B  B15_7  1  0.51865300  0.83171850  0.75000000  1
  Ru  Ru0_0  1  0.37738800  0.20966100  0.00000000  1
  Ru  Ru0_1  1  0.37738800  0.20966100  0.50000000  1
  Ru  Ru0_2  1  0.37738800  0.70966100  0.00000000  1
  Ru  Ru0_3  1  0.37738800  0.70966100  0.50000000  1
  Ru  Ru0_4  1  0.87738800  0.20966100  0.00000000  1
  Ru  Ru0_5  1  0.87738800  0.20966100  0.50000000  1
  Ru  Ru0_6  1  0.87738800  0.70966100  0.00000000  1
  Ru  Ru0_7  1  0.87738800  0.70966100  0.50000000  1
  Ru  Ru1_0  1  0.12261200  0.29033900  0.00000000  1
  Ru  Ru1_1  1  0.12261200  0.29033900  0.50000000  1
  Ru  Ru1_2  1  0.12261200  0.79033900  0.00000000  1
  Ru  Ru1_3  1  0.12261200  0.79033900  0.50000000  1
  Ru  Ru1_4  1  0.62261200  0.29033900  0.00000000  1
  Ru  Ru1_5  1  0.62261200  0.29033900  0.50000000  1
  Ru  Ru1_6  1  0.62261200  0.79033900  0.00000000  1
  Ru  Ru1_7  1  0.62261200  0.79033900  0.50000000  1
  Ru  Ru2_0  1  0.12738800  0.04033900  0.00000000  1
  Ru  Ru2_1  1  0.12738800  0.04033900  0.50000000  1
  Ru  Ru2_2  1  0.12738800  0.54033900  0.00000000  1
  Ru  Ru2_3  1  0.12738800  0.54033900  0.50000000  1
  Ru  Ru2_4  1  0.62738800  0.04033900  0.00000000  1
  Ru  Ru2_5  1  0.62738800  0.04033900  0.50000000  1
  Ru  Ru2_6  1  0.62738800  0.54033900  0.00000000  1
  Ru  Ru2_7  1  0.62738800  0.54033900  0.50000000  1
  Ru  Ru3_0  1  0.37261200  0.45966100  0.00000000  1
  Ru  Ru3_1  1  0.37261200  0.45966100  0.50000000  1
  Ru  Ru3_2  1  0.37261200  0.95966100  0.00000000  1
  Ru  Ru3_3  1  0.37261200  0.95966100  0.50000000  1
  Ru  Ru3_4  1  0.87261200  0.45966100  0.00000000  1
  Ru  Ru3_5  1  0.87261200  0.45966100  0.50000000  1
  Ru  Ru3_6  1  0.87261200  0.95966100  0.00000000  1
  Ru  Ru3_7  1  0.87261200  0.95966100  0.50000000  1
  Ru  Ru4_0  1  0.29033900  0.37738800  0.00000000  1
  Ru  Ru4_1  1  0.29033900  0.37738800  0.50000000  1
  Ru  Ru4_2  1  0.29033900  0.87738800  0.00000000  1
  Ru  Ru4_3  1  0.29033900  0.87738800  0.50000000  1
  Ru  Ru4_4  1  0.79033900  0.37738800  0.00000000  1
  Ru  Ru4_5  1  0.79033900  0.37738800  0.50000000  1
  Ru  Ru4_6  1  0.79033900  0.87738800  0.00000000  1
  Ru  Ru4_7  1  0.79033900  0.87738800  0.50000000  1
  Ru  Ru5_0  1  0.20966100  0.12261200  0.00000000  1
  Ru  Ru5_1  1  0.20966100  0.12261200  0.50000000  1
  Ru  Ru5_2  1  0.20966100  0.62261200  0.00000000  1
  Ru  Ru5_3  1  0.20966100  0.62261200  0.50000000  1
  Ru  Ru5_4  1  0.70966100  0.12261200  0.00000000  1
  Ru  Ru5_5  1  0.70966100  0.12261200  0.50000000  1
  Ru  Ru5_6  1  0.70966100  0.62261200  0.00000000  1
  Ru  Ru5_7  1  0.70966100  0.62261200  0.50000000  1
  Ru  Ru6_0  1  0.45966100  0.12738800  0.00000000  1
  Ru  Ru6_1  1  0.45966100  0.12738800  0.50000000  1
  Ru  Ru6_2  1  0.45966100  0.62738800  0.00000000  1
  Ru  Ru6_3  1  0.45966100  0.62738800  0.50000000  1
  Ru  Ru6_4  1  0.95966100  0.12738800  0.00000000  1
  Ru  Ru6_5  1  0.95966100  0.12738800  0.50000000  1
  Ru  Ru6_6  1  0.95966100  0.62738800  0.00000000  1
  Ru  Ru6_7  1  0.95966100  0.62738800  0.50000000  1
  Ru  Ru7_0  1  0.04033900  0.37261200  0.00000000  1
  Ru  Ru7_1  1  0.04033900  0.37261200  0.50000000  1
  Ru  Ru7_2  1  0.04033900  0.87261200  0.00000000  1
  Ru  Ru7_3  1  0.04033900  0.87261200  0.50000000  1
  Ru  Ru7_4  1  0.54033900  0.37261200  0.00000000  1
  Ru  Ru7_5  1  0.54033900  0.37261200  0.50000000  1
  Ru  Ru7_6  1  0.54033900  0.87261200  0.00000000  1
  Ru  Ru7_7  1  0.54033900  0.87261200  0.50000000  1
  Ru  Ru8_0  1  0.45937000  0.20937000  0.00000000  1
  Ru  Ru8_1  1  0.45937000  0.20937000  0.50000000  1
  Ru  Ru8_2  1  0.45937000  0.70937000  0.00000000  1
  Ru  Ru8_3  1  0.45937000  0.70937000  0.50000000  1
  Ru  Ru8_4  1  0.95937000  0.20937000  0.00000000  1
  Ru  Ru8_5  1  0.95937000  0.20937000  0.50000000  1
  Ru  Ru8_6  1  0.95937000  0.70937000  0.00000000  1
  Ru  Ru8_7  1  0.95937000  0.70937000  0.50000000  1
  Ru  Ru9_0  1  0.04063000  0.29063000  0.00000000  1
  Ru  Ru9_1  1  0.04063000  0.29063000  0.50000000  1
  Ru  Ru9_2  1  0.04063000  0.79063000  0.00000000  1
  Ru  Ru9_3  1  0.04063000  0.79063000  0.50000000  1
  Ru  Ru9_4  1  0.54063000  0.29063000  0.00000000  1
  Ru  Ru9_5  1  0.54063000  0.29063000  0.50000000  1
  Ru  Ru9_6  1  0.54063000  0.79063000  0.00000000  1
  Ru  Ru9_7  1  0.54063000  0.79063000  0.50000000  1
  Ru  Ru10_0  1  0.20937000  0.04063000  0.00000000  1
  Ru  Ru10_1  1  0.20937000  0.04063000  0.50000000  1
  Ru  Ru10_2  1  0.20937000  0.54063000  0.00000000  1
  Ru  Ru10_3  1  0.20937000  0.54063000  0.50000000  1
  Ru  Ru10_4  1  0.70937000  0.04063000  0.00000000  1
  Ru  Ru10_5  1  0.70937000  0.04063000  0.50000000  1
  Ru  Ru10_6  1  0.70937000  0.54063000  0.00000000  1
  Ru  Ru10_7  1  0.70937000  0.54063000  0.50000000  1
  Ru  Ru11_0  1  0.29063000  0.45937000  0.00000000  1
  Ru  Ru11_1  1  0.29063000  0.45937000  0.50000000  1
  Ru  Ru11_2  1  0.29063000  0.95937000  0.00000000  1
  Ru  Ru11_3  1  0.29063000  0.95937000  0.50000000  1
  Ru  Ru11_4  1  0.79063000  0.45937000  0.00000000  1
  Ru  Ru11_5  1  0.79063000  0.45937000  0.50000000  1
  Ru  Ru11_6  1  0.79063000  0.95937000  0.00000000  1
  Ru  Ru11_7  1  0.79063000  0.95937000  0.50000000  1
  Ru  Ru12_0  1  0.41611400  0.27567350  0.00000000  1
  Ru  Ru12_1  1  0.41611400  0.27567350  0.50000000  1
  Ru  Ru12_2  1  0.41611400  0.77567350  0.00000000  1
  Ru  Ru12_3  1  0.41611400  0.77567350  0.50000000  1
  Ru  Ru12_4  1  0.91611400  0.27567350  0.00000000  1
  Ru  Ru12_5  1  0.91611400  0.27567350  0.50000000  1
  Ru  Ru12_6  1  0.91611400  0.77567350  0.00000000  1
  Ru  Ru12_7  1  0.91611400  0.77567350  0.50000000  1
  Ru  Ru13_0  1  0.08388600  0.22432650  0.00000000  1
  Ru  Ru13_1  1  0.08388600  0.22432650  0.50000000  1
  Ru  Ru13_2  1  0.08388600  0.72432650  0.00000000  1
  Ru  Ru13_3  1  0.08388600  0.72432650  0.50000000  1
  Ru  Ru13_4  1  0.58388600  0.22432650  0.00000000  1
  Ru  Ru13_5  1  0.58388600  0.22432650  0.50000000  1
  Ru  Ru13_6  1  0.58388600  0.72432650  0.00000000  1
  Ru  Ru13_7  1  0.58388600  0.72432650  0.50000000  1
  Ru  Ru14_0  1  0.16611400  0.47432650  0.00000000  1
  Ru  Ru14_1  1  0.16611400  0.47432650  0.50000000  1
  Ru  Ru14_2  1  0.16611400  0.97432650  0.00000000  1
  Ru  Ru14_3  1  0.16611400  0.97432650  0.50000000  1
  Ru  Ru14_4  1  0.66611400  0.47432650  0.00000000  1
  Ru  Ru14_5  1  0.66611400  0.47432650  0.50000000  1
  Ru  Ru14_6  1  0.66611400  0.97432650  0.00000000  1
  Ru  Ru14_7  1  0.66611400  0.97432650  0.50000000  1
  Ru  Ru15_0  1  0.33388600  0.02567350  0.00000000  1
  Ru  Ru15_1  1  0.33388600  0.02567350  0.50000000  1
  Ru  Ru15_2  1  0.33388600  0.52567350  0.00000000  1
  Ru  Ru15_3  1  0.33388600  0.52567350  0.50000000  1
  Ru  Ru15_4  1  0.83388600  0.02567350  0.00000000  1
  Ru  Ru15_5  1  0.83388600  0.02567350  0.50000000  1
  Ru  Ru15_6  1  0.83388600  0.52567350  0.00000000  1
  Ru  Ru15_7  1  0.83388600  0.52567350  0.50000000  1
  Ru  Ru16_0  1  0.22432650  0.41611400  0.00000000  1
  Ru  Ru16_1  1  0.22432650  0.41611400  0.50000000  1
  Ru  Ru16_2  1  0.22432650  0.91611400  0.00000000  1
  Ru  Ru16_3  1  0.22432650  0.91611400  0.50000000  1
  Ru  Ru16_4  1  0.72432650  0.41611400  0.00000000  1
  Ru  Ru16_5  1  0.72432650  0.41611400  0.50000000  1
  Ru  Ru16_6  1  0.72432650  0.91611400  0.00000000  1
  Ru  Ru16_7  1  0.72432650  0.91611400  0.50000000  1
  Ru  Ru17_0  1  0.27567350  0.08388600  0.00000000  1
  Ru  Ru17_1  1  0.27567350  0.08388600  0.50000000  1
  Ru  Ru17_2  1  0.27567350  0.58388600  0.00000000  1
  Ru  Ru17_3  1  0.27567350  0.58388600  0.50000000  1
  Ru  Ru17_4  1  0.77567350  0.08388600  0.00000000  1
  Ru  Ru17_5  1  0.77567350  0.08388600  0.50000000  1
  Ru  Ru17_6  1  0.77567350  0.58388600  0.00000000  1
  Ru  Ru17_7  1  0.77567350  0.58388600  0.50000000  1
  Ru  Ru18_0  1  0.02567350  0.16611400  0.00000000  1
  Ru  Ru18_1  1  0.02567350  0.16611400  0.50000000  1
  Ru  Ru18_2  1  0.02567350  0.66611400  0.00000000  1
  Ru  Ru18_3  1  0.02567350  0.66611400  0.50000000  1
  Ru  Ru18_4  1  0.52567350  0.16611400  0.00000000  1
  Ru  Ru18_5  1  0.52567350  0.16611400  0.50000000  1
  Ru  Ru18_6  1  0.52567350  0.66611400  0.00000000  1
  Ru  Ru18_7  1  0.52567350  0.66611400  0.50000000  1
  Ru  Ru19_0  1  0.47432650  0.33388600  0.00000000  1
  Ru  Ru19_1  1  0.47432650  0.33388600  0.50000000  1
  Ru  Ru19_2  1  0.47432650  0.83388600  0.00000000  1
  Ru  Ru19_3  1  0.47432650  0.83388600  0.50000000  1
  Ru  Ru19_4  1  0.97432650  0.33388600  0.00000000  1
  Ru  Ru19_5  1  0.97432650  0.33388600  0.50000000  1
  Ru  Ru19_6  1  0.97432650  0.83388600  0.00000000  1
  Ru  Ru19_7  1  0.97432650  0.83388600  0.50000000  1
  Ru  Ru20_0  1  0.33393400  0.14446000  0.00000000  1
  Ru  Ru20_1  1  0.33393400  0.14446000  0.50000000  1
  Ru  Ru20_2  1  0.33393400  0.64446000  0.00000000  1
  Ru  Ru20_3  1  0.33393400  0.64446000  0.50000000  1
  Ru  Ru20_4  1  0.83393400  0.14446000  0.00000000  1
  Ru  Ru20_5  1  0.83393400  0.14446000  0.50000000  1
  Ru  Ru20_6  1  0.83393400  0.64446000  0.00000000  1
  Ru  Ru20_7  1  0.83393400  0.64446000  0.50000000  1
  Ru  Ru21_0  1  0.16606600  0.35554000  0.00000000  1
  Ru  Ru21_1  1  0.16606600  0.35554000  0.50000000  1
  Ru  Ru21_2  1  0.16606600  0.85554000  0.00000000  1
  Ru  Ru21_3  1  0.16606600  0.85554000  0.50000000  1
  Ru  Ru21_4  1  0.66606600  0.35554000  0.00000000  1
  Ru  Ru21_5  1  0.66606600  0.35554000  0.50000000  1
  Ru  Ru21_6  1  0.66606600  0.85554000  0.00000000  1
  Ru  Ru21_7  1  0.66606600  0.85554000  0.50000000  1
  Ru  Ru22_0  1  0.08393400  0.10554000  0.00000000  1
  Ru  Ru22_1  1  0.08393400  0.10554000  0.50000000  1
  Ru  Ru22_2  1  0.08393400  0.60554000  0.00000000  1
  Ru  Ru22_3  1  0.08393400  0.60554000  0.50000000  1
  Ru  Ru22_4  1  0.58393400  0.10554000  0.00000000  1
  Ru  Ru22_5  1  0.58393400  0.10554000  0.50000000  1
  Ru  Ru22_6  1  0.58393400  0.60554000  0.00000000  1
  Ru  Ru22_7  1  0.58393400  0.60554000  0.50000000  1
  Ru  Ru23_0  1  0.41606600  0.39446000  0.00000000  1
  Ru  Ru23_1  1  0.41606600  0.39446000  0.50000000  1
  Ru  Ru23_2  1  0.41606600  0.89446000  0.00000000  1
  Ru  Ru23_3  1  0.41606600  0.89446000  0.50000000  1
  Ru  Ru23_4  1  0.91606600  0.39446000  0.00000000  1
  Ru  Ru23_5  1  0.91606600  0.39446000  0.50000000  1
  Ru  Ru23_6  1  0.91606600  0.89446000  0.00000000  1
  Ru  Ru23_7  1  0.91606600  0.89446000  0.50000000  1
  Ru  Ru24_0  1  0.35554000  0.33393400  0.00000000  1
  Ru  Ru24_1  1  0.35554000  0.33393400  0.50000000  1
  Ru  Ru24_2  1  0.35554000  0.83393400  0.00000000  1
  Ru  Ru24_3  1  0.35554000  0.83393400  0.50000000  1
  Ru  Ru24_4  1  0.85554000  0.33393400  0.00000000  1
  Ru  Ru24_5  1  0.85554000  0.33393400  0.50000000  1
  Ru  Ru24_6  1  0.85554000  0.83393400  0.00000000  1
  Ru  Ru24_7  1  0.85554000  0.83393400  0.50000000  1
  Ru  Ru25_0  1  0.14446000  0.16606600  0.00000000  1
  Ru  Ru25_1  1  0.14446000  0.16606600  0.50000000  1
  Ru  Ru25_2  1  0.14446000  0.66606600  0.00000000  1
  Ru  Ru25_3  1  0.14446000  0.66606600  0.50000000  1
  Ru  Ru25_4  1  0.64446000  0.16606600  0.00000000  1
  Ru  Ru25_5  1  0.64446000  0.16606600  0.50000000  1
  Ru  Ru25_6  1  0.64446000  0.66606600  0.00000000  1
  Ru  Ru25_7  1  0.64446000  0.66606600  0.50000000  1
  Ru  Ru26_0  1  0.39446000  0.08393400  0.00000000  1
  Ru  Ru26_1  1  0.39446000  0.08393400  0.50000000  1
  Ru  Ru26_2  1  0.39446000  0.58393400  0.00000000  1
  Ru  Ru26_3  1  0.39446000  0.58393400  0.50000000  1
  Ru  Ru26_4  1  0.89446000  0.08393400  0.00000000  1
  Ru  Ru26_5  1  0.89446000  0.08393400  0.50000000  1
  Ru  Ru26_6  1  0.89446000  0.58393400  0.00000000  1
  Ru  Ru26_7  1  0.89446000  0.58393400  0.50000000  1
  Ru  Ru27_0  1  0.10554000  0.41606600  0.00000000  1
  Ru  Ru27_1  1  0.10554000  0.41606600  0.50000000  1
  Ru  Ru27_2  1  0.10554000  0.91606600  0.00000000  1
  Ru  Ru27_3  1  0.10554000  0.91606600  0.50000000  1
  Ru  Ru27_4  1  0.60554000  0.41606600  0.00000000  1
  Ru  Ru27_5  1  0.60554000  0.41606600  0.50000000  1
  Ru  Ru27_6  1  0.60554000  0.91606600  0.00000000  1
  Ru  Ru27_7  1  0.60554000  0.91606600  0.50000000  1
  Ru  Ru28_0  1  0.29889050  0.21513200  0.00000000  1
  Ru  Ru28_1  1  0.29889050  0.21513200  0.50000000  1
  Ru  Ru28_2  1  0.29889050  0.71513200  0.00000000  1
  Ru  Ru28_3  1  0.29889050  0.71513200  0.50000000  1
  Ru  Ru28_4  1  0.79889050  0.21513200  0.00000000  1
  Ru  Ru28_5  1  0.79889050  0.21513200  0.50000000  1
  Ru  Ru28_6  1  0.79889050  0.71513200  0.00000000  1
  Ru  Ru28_7  1  0.79889050  0.71513200  0.50000000  1
  Ru  Ru29_0  1  0.20110950  0.28486800  0.00000000  1
  Ru  Ru29_1  1  0.20110950  0.28486800  0.50000000  1
  Ru  Ru29_2  1  0.20110950  0.78486800  0.00000000  1
  Ru  Ru29_3  1  0.20110950  0.78486800  0.50000000  1
  Ru  Ru29_4  1  0.70110950  0.28486800  0.00000000  1
  Ru  Ru29_5  1  0.70110950  0.28486800  0.50000000  1
  Ru  Ru29_6  1  0.70110950  0.78486800  0.00000000  1
  Ru  Ru29_7  1  0.70110950  0.78486800  0.50000000  1
  Ru  Ru30_0  1  0.04889050  0.03486800  0.00000000  1
  Ru  Ru30_1  1  0.04889050  0.03486800  0.50000000  1
  Ru  Ru30_2  1  0.04889050  0.53486800  0.00000000  1
  Ru  Ru30_3  1  0.04889050  0.53486800  0.50000000  1
  Ru  Ru30_4  1  0.54889050  0.03486800  0.00000000  1
  Ru  Ru30_5  1  0.54889050  0.03486800  0.50000000  1
  Ru  Ru30_6  1  0.54889050  0.53486800  0.00000000  1
  Ru  Ru30_7  1  0.54889050  0.53486800  0.50000000  1
  Ru  Ru31_0  1  0.45110950  0.46513200  0.00000000  1
  Ru  Ru31_1  1  0.45110950  0.46513200  0.50000000  1
  Ru  Ru31_2  1  0.45110950  0.96513200  0.00000000  1
  Ru  Ru31_3  1  0.45110950  0.96513200  0.50000000  1
  Ru  Ru31_4  1  0.95110950  0.46513200  0.00000000  1
  Ru  Ru31_5  1  0.95110950  0.46513200  0.50000000  1
  Ru  Ru31_6  1  0.95110950  0.96513200  0.00000000  1
  Ru  Ru31_7  1  0.95110950  0.96513200  0.50000000  1
  Ru  Ru32_0  1  0.28486800  0.29889050  0.00000000  1
  Ru  Ru32_1  1  0.28486800  0.29889050  0.50000000  1
  Ru  Ru32_2  1  0.28486800  0.79889050  0.00000000  1
  Ru  Ru32_3  1  0.28486800  0.79889050  0.50000000  1
  Ru  Ru32_4  1  0.78486800  0.29889050  0.00000000  1
  Ru  Ru32_5  1  0.78486800  0.29889050  0.50000000  1
  Ru  Ru32_6  1  0.78486800  0.79889050  0.00000000  1
  Ru  Ru32_7  1  0.78486800  0.79889050  0.50000000  1
  Ru  Ru33_0  1  0.21513200  0.20110950  0.00000000  1
  Ru  Ru33_1  1  0.21513200  0.20110950  0.50000000  1
  Ru  Ru33_2  1  0.21513200  0.70110950  0.00000000  1
  Ru  Ru33_3  1  0.21513200  0.70110950  0.50000000  1
  Ru  Ru33_4  1  0.71513200  0.20110950  0.00000000  1
  Ru  Ru33_5  1  0.71513200  0.20110950  0.50000000  1
  Ru  Ru33_6  1  0.71513200  0.70110950  0.00000000  1
  Ru  Ru33_7  1  0.71513200  0.70110950  0.50000000  1
  Ru  Ru34_0  1  0.46513200  0.04889050  0.00000000  1
  Ru  Ru34_1  1  0.46513200  0.04889050  0.50000000  1
  Ru  Ru34_2  1  0.46513200  0.54889050  0.00000000  1
  Ru  Ru34_3  1  0.46513200  0.54889050  0.50000000  1
  Ru  Ru34_4  1  0.96513200  0.04889050  0.00000000  1
  Ru  Ru34_5  1  0.96513200  0.04889050  0.50000000  1
  Ru  Ru34_6  1  0.96513200  0.54889050  0.00000000  1
  Ru  Ru34_7  1  0.96513200  0.54889050  0.50000000  1
  Ru  Ru35_0  1  0.03486800  0.45110950  0.00000000  1
  Ru  Ru35_1  1  0.03486800  0.45110950  0.50000000  1
  Ru  Ru35_2  1  0.03486800  0.95110950  0.00000000  1
  Ru  Ru35_3  1  0.03486800  0.95110950  0.50000000  1
  Ru  Ru35_4  1  0.53486800  0.45110950  0.00000000  1
  Ru  Ru35_5  1  0.53486800  0.45110950  0.50000000  1
  Ru  Ru35_6  1  0.53486800  0.95110950  0.00000000  1
  Ru  Ru35_7  1  0.53486800  0.95110950  0.50000000  1
loop_
_geom_bond_atom_site_label_1
_geom_bond_atom_site_label_2
_geom_bond_distance
_geom_bond_site_symmetry_2
Ti6_0 Ti6_1 2.992357 1_554
Ti6_0 Ti6_1 2.992357 1_555
Ti6_2 Ti6_3 2.992357 1_555
Ti6_2 Ti6_3 2.992357 1_554
Ti6_4 Ti6_5 2.992357 1_554
Ti6_4 Ti6_5 2.992357 1_555
Ti6_6 Ti6_7 2.992357 1_555
Ti6_6 Ti6_7 2.992357 1_554
Ti7_0 Ti7_1 2.992357 1_554
Ti7_0 Ti7_1 2.992357 1_555
Ti7_2 Ti7_3 2.992357 1_554
Ti7_2 Ti7_3 2.992357 1_555
Ti7_4 Ti7_5 2.992357 1_554
Ti7_4 Ti7_5 2.992357 1_555
Ti7_6 Ti7_7 2.992357 1_554
Ti7_6 Ti7_7 2.992357 1_555
Ti8_0 Ti8_1 2.992357 1_555
Ti8_0 Ti8_1 2.992357 1_554
Ti8_2 Ti8_3 2.992357 1_555
Ti8_2 Ti8_3 2.992357 1_554
Ti8_4 Ti8_5 2.992357 1_555
Ti8_4 Ti8_5 2.992357 1_554
Ti8_6 Ti8_7 2.992357 1_555
Ti8_6 Ti8_7 2.992357 1_554
Ti9_0 Ti9_1 2.992357 1_555
Ti9_0 Ti9_1 2.992357 1_554
Ti9_2 Ti9_3 2.992357 1_554
Ti9_2 Ti9_3 2.992357 1_555
Ti9_4 Ti9_5 2.992357 1_555
Ti9_4 Ti9_5 2.992357 1_554
Ti9_6 Ti9_7 2.992357 1_554
Ti9_6 Ti9_7 2.992357 1_555
Ti10_0 Ti10_1 2.992357 1_555
Ti10_0 Ti10_1 2.992357 1_554
Ti10_2 Ti10_3 2.992357 1_555
Ti10_2 Ti10_3 2.992357 1_554
Ti10_4 Ti10_5 2.992357 1_554
Ti10_4 Ti10_5 2.992357 1_555
Ti10_6 Ti10_7 2.992357 1_555
Ti10_6 Ti10_7 2.992357 1_554
Ti11_0 Ti11_1 2.992357 1_555
Ti11_0 Ti11_1 2.992357 1_554
Ti11_2 Ti11_3 2.992357 1_555
Ti11_2 Ti11_3 2.992357 1_554
Ti11_4 Ti11_5 2.992357 1_555
Ti11_4 Ti11_5 2.992357 1_554
Ti11_6 Ti11_7 2.992357 1_555
Ti11_6 Ti11_7 2.992357 1_554
Ti12_0 Ti12_1 2.992357 1_554
Ti12_0 Ti12_1 2.992357 1_555
Ti12_2 Ti12_3 2.992357 1_554
Ti12_2 Ti12_3 2.992357 1_555
Ti12_4 Ti12_5 2.992357 1_554
Ti12_4 Ti12_5 2.992357 1_555
Ti12_6 Ti12_7 2.992357 1_555
Ti12_6 Ti12_7 2.992357 1_554
Ti13_0 Ti13_1 2.992357 1_554
Ti13_0 Ti13_1 2.992357 1_555
Ti13_2 Ti13_3 2.992357 1_554
Ti13_2 Ti13_3 2.992357 1_555
Ti13_4 Ti13_5 2.992357 1_554
Ti13_4 Ti13_5 2.992357 1_555
Ti13_6 Ti13_7 2.992357 1_554
Ti13_6 Ti13_7 2.992357 1_555
Co0_0 Co1_4 2.435762 1_555
Co0_0 Ru19_0 2.573400 1_555
Co0_0 Ru19_1 2.573400 1_555
Co0_0 Ru12_0 2.573400 1_555
Co0_0 Ru12_1 2.573400 1_555
Co0_0 Ru8_0 2.795946 1_555
Co0_0 Ru8_1 2.795946 1_555
Co0_0 Ru9_4 2.795946 1_555
Co0_0 Ru9_5 2.795946 1_555
Co0_1 Co1_5 2.435762 1_555
Co0_1 Ru19_0 2.573400 1_556
Co0_1 Ru19_1 2.573400 1_555
Co0_1 Ru12_0 2.573400 1_556
Co0_1 Ru12_1 2.573400 1_555
Co0_1 Ru8_0 2.795946 1_556
Co0_1 Ru8_1 2.795946 1_555
Co0_1 Ru9_4 2.795946 1_556
Co0_1 Ru9_5 2.795946 1_555
Co0_2 Co1_6 2.435762 1_555
Co0_2 Ru19_3 2.573400 1_555
Co0_2 Ru19_2 2.573400 1_555
Co0_2 Ru12_2 2.573400 1_555
Co0_2 Ru12_3 2.573400 1_555
Co0_2 Ru8_2 2.795946 1_555
Co0_2 Ru8_3 2.795946 1_555
Co0_2 Ru9_7 2.795946 1_555
Co0_2 Ru9_6 2.795946 1_555
Co0_3 Co1_7 2.435762 1_555
Co0_3 Ru19_2 2.573400 1_556
Co0_3 Ru19_3 2.573400 1_555
Co0_3 Ru12_2 2.573400 1_556
Co0_3 Ru12_3 2.573400 1_555
Co0_3 Ru8_2 2.795946 1_556
Co0_3 Ru8_3 2.795946 1_555
Co0_3 Ru9_6 2.795946 1_556
Co0_3 Ru9_7 2.795946 1_555
Co0_4 Co1_0 2.435762 1_655
Co0_4 Ru19_4 2.573400 1_555
Co0_4 Ru19_5 2.573400 1_555
Co0_4 Ru12_4 2.573400 1_555
Co0_4 Ru12_5 2.573400 1_555
Co0_4 Ru9_0 2.795946 1_655
Co0_4 Ru9_1 2.795946 1_655
Co0_4 Ru8_4 2.795946 1_555
Co0_4 Ru8_5 2.795946 1_555
Co0_5 Co1_1 2.435762 1_655
Co0_5 Ru19_5 2.573400 1_555
Co0_5 Ru19_4 2.573400 1_556
Co0_5 Ru12_4 2.573400 1_556
Co0_5 Ru12_5 2.573400 1_555
Co0_5 Ru9_0 2.795946 1_656
Co0_5 Ru9_1 2.795946 1_655
Co0_5 Ru8_4 2.795946 1_556
Co0_5 Ru8_5 2.795946 1_555
Co0_6 Co1_2 2.435762 1_655
Co0_6 Ru19_6 2.573400 1_555
Co0_6 Ru19_7 2.573400 1_555
Co0_6 Ru12_6 2.573400 1_555
Co0_6 Ru12_7 2.573400 1_555
Co0_6 Ru9_3 2.795946 1_655
Co0_6 Ru9_2 2.795946 1_655
Co0_6 Ru8_7 2.795946 1_555
Co0_6 Ru8_6 2.795946 1_555
Co0_7 Co1_3 2.435762 1_655
Co0_7 Ru19_6 2.573400 1_556
Co0_7 Ru19_7 2.573400 1_555
Co0_7 Ru12_6 2.573400 1_556
Co0_7 Ru12_7 2.573400 1_555
Co0_7 Ru9_2 2.795946 1_656
Co0_7 Ru9_3 2.795946 1_655
Co0_7 Ru8_7 2.795946 1_555
Co0_7 Ru8_6 2.795946 1_556
Co1_0 Ru13_0 2.573400 1_555
Co1_0 Ru13_1 2.573400 1_555
Co1_0 Ru18_1 2.573400 1_555
Co1_0 Ru18_0 2.573400 1_555
Co1_0 Ru9_0 2.795946 1_555
Co1_0 Ru9_1 2.795946 1_555
Co1_0 Ru8_4 2.795946 1_455
Co1_0 Ru8_5 2.795946 1_455
Co1_1 Ru13_0 2.573400 1_556
Co1_1 Ru13_1 2.573400 1_555
Co1_1 Ru18_1 2.573400 1_555
Co1_1 Ru18_0 2.573400 1_556
Co1_1 Ru9_0 2.795946 1_556
Co1_1 Ru9_1 2.795946 1_555
Co1_1 Ru8_4 2.795946 1_456
Co1_1 Ru8_5 2.795946 1_455
Co1_2 Ru13_3 2.573400 1_555
Co1_2 Ru13_2 2.573400 1_555
Co1_2 Ru18_2 2.573400 1_555
Co1_2 Ru18_3 2.573400 1_555
Co1_2 Ru9_2 2.795946 1_555
Co1_2 Ru9_3 2.795946 1_555
Co1_2 Ru8_6 2.795946 1_455
Co1_2 Ru8_7 2.795946 1_455
Co1_3 Ru13_3 2.573400 1_555
Co1_3 Ru13_2 2.573400 1_556
Co1_3 Ru18_2 2.573400 1_556
Co1_3 Ru18_3 2.573400 1_555
Co1_3 Ru9_2 2.795946 1_556
Co1_3 Ru9_3 2.795946 1_555
Co1_3 Ru8_6 2.795946 1_456
Co1_3 Ru8_7 2.795946 1_455
Co1_4 Ru13_4 2.573400 1_555
Co1_4 Ru13_5 2.573400 1_555
Co1_4 Ru18_4 2.573400 1_555
Co1_4 Ru18_5 2.573400 1_555
Co1_4 Ru8_1 2.795946 1_555
Co1_4 Ru8_0 2.795946 1_555
Co1_4 Ru9_4 2.795946 1_555
Co1_4 Ru9_5 2.795946 1_555
Co1_5 Ru13_4 2.573400 1_556
Co1_5 Ru13_5 2.573400 1_555
Co1_5 Ru18_4 2.573400 1_556
Co1_5 Ru18_5 2.573400 1_555
Co1_5 Ru8_0 2.795946 1_556
Co1_5 Ru8_1 2.795946 1_555
Co1_5 Ru9_4 2.795946 1_556
Co1_5 Ru9_5 2.795946 1_555
Co1_6 Ru13_6 2.573400 1_555
Co1_6 Ru13_7 2.573400 1_555
Co1_6 Ru18_7 2.573400 1_555
Co1_6 Ru18_6 2.573400 1_555
Co1_6 Ru8_2 2.795946 1_555
Co1_6 Ru8_3 2.795946 1_555
Co1_6 Ru9_7 2.795946 1_555
Co1_6 Ru9_6 2.795946 1_555
Co1_7 Ru13_6 2.573400 1_556
Co1_7 Ru13_7 2.573400 1_555
Co1_7 Ru18_6 2.573400 1_556
Co1_7 Ru18_7 2.573400 1_555
Co1_7 Ru8_2 2.795946 1_556
Co1_7 Ru8_3 2.795946 1_555
Co1_7 Ru9_7 2.795946 1_555
Co1_7 Ru9_6 2.795946 1_556
Co2_0 Co3_2 2.435762 1_555
Co2_0 Ru16_1 2.573400 1_555
Co2_0 Ru16_0 2.573400 1_555
Co2_0 Ru14_0 2.573400 1_555
Co2_0 Ru14_1 2.573400 1_555
Co2_0 Ru11_0 2.795946 1_555
Co2_0 Ru11_1 2.795946 1_555
Co2_0 Ru10_3 2.795946 1_555
Co2_0 Ru10_2 2.795946 1_555
Co2_1 Co3_3 2.435762 1_555
Co2_1 Ru16_1 2.573400 1_555
Co2_1 Ru16_0 2.573400 1_556
Co2_1 Ru14_0 2.573400 1_556
Co2_1 Ru14_1 2.573400 1_555
Co2_1 Ru11_0 2.795946 1_556
Co2_1 Ru11_1 2.795946 1_555
Co2_1 Ru10_2 2.795946 1_556
Co2_1 Ru10_3 2.795946 1_555
Co2_2 Co3_0 2.435762 1_565
Co2_2 Ru16_3 2.573400 1_555
Co2_2 Ru16_2 2.573400 1_555
Co2_2 Ru14_2 2.573400 1_555
Co2_2 Ru14_3 2.573400 1_555
Co2_2 Ru10_0 2.795946 1_565
Co2_2 Ru10_1 2.795946 1_565
Co2_2 Ru11_2 2.795946 1_555
Co2_2 Ru11_3 2.795946 1_555
Co2_3 Co3_1 2.435762 1_565
Co2_3 Ru16_2 2.573400 1_556
Co2_3 Ru16_3 2.573400 1_555
Co2_3 Ru14_2 2.573400 1_556
Co2_3 Ru14_3 2.573400 1_555
Co2_3 Ru10_0 2.795946 1_566
Co2_3 Ru10_1 2.795946 1_565
Co2_3 Ru11_2 2.795946 1_556
Co2_3 Ru11_3 2.795946 1_555
Co2_4 Co3_6 2.435762 1_555
Co2_4 Ru16_5 2.573400 1_555
Co2_4 Ru16_4 2.573400 1_555
Co2_4 Ru14_4 2.573400 1_555
Co2_4 Ru14_5 2.573400 1_555
Co2_4 Ru11_4 2.795946 1_555
Co2_4 Ru11_5 2.795946 1_555
Co2_4 Ru10_7 2.795946 1_555
Co2_4 Ru10_6 2.795946 1_555
Co2_5 Co3_7 2.435762 1_555
Co2_5 Ru16_5 2.573400 1_555
Co2_5 Ru16_4 2.573400 1_556
Co2_5 Ru14_4 2.573400 1_556
Co2_5 Ru14_5 2.573400 1_555
Co2_5 Ru11_4 2.795946 1_556
Co2_5 Ru11_5 2.795946 1_555
Co2_5 Ru10_7 2.795946 1_555
Co2_5 Ru10_6 2.795946 1_556
Co2_6 Co3_4 2.435762 1_565
Co2_6 Ru16_6 2.573400 1_555
Co2_6 Ru16_7 2.573400 1_555
Co2_6 Ru14_7 2.573400 1_555
Co2_6 Ru14_6 2.573400 1_555
Co2_6 Ru10_4 2.795946 1_565
Co2_6 Ru10_5 2.795946 1_565
Co2_6 Ru11_7 2.795946 1_555
Co2_6 Ru11_6 2.795946 1_555
Co2_7 Co3_5 2.435762 1_565
Co2_7 Ru16_6 2.573400 1_556
Co2_7 Ru16_7 2.573400 1_555
Co2_7 Ru14_7 2.573400 1_555
Co2_7 Ru14_6 2.573400 1_556
Co2_7 Ru10_4 2.795946 1_566
Co2_7 Ru10_5 2.795946 1_565
Co2_7 Ru11_6 2.795946 1_556
Co2_7 Ru11_7 2.795946 1_555
Co3_0 Ru15_1 2.573400 1_555
Co3_0 Ru15_0 2.573400 1_555
Co3_0 Ru17_0 2.573400 1_555
Co3_0 Ru17_1 2.573400 1_555
Co3_0 Ru10_0 2.795946 1_555
Co3_0 Ru10_1 2.795946 1_555
Co3_0 Ru11_3 2.795946 1_545
Co3_0 Ru11_2 2.795946 1_545
Co3_1 Ru15_1 2.573400 1_555
Co3_1 Ru15_0 2.573400 1_556
Co3_1 Ru17_1 2.573400 1_555
Co3_1 Ru17_0 2.573400 1_556
Co3_1 Ru10_0 2.795946 1_556
Co3_1 Ru10_1 2.795946 1_555
Co3_1 Ru11_3 2.795946 1_545
Co3_1 Ru11_2 2.795946 1_546
Co3_2 Ru15_2 2.573400 1_555
Co3_2 Ru15_3 2.573400 1_555
Co3_2 Ru17_2 2.573400 1_555
Co3_2 Ru17_3 2.573400 1_555
Co3_2 Ru11_1 2.795946 1_555
Co3_2 Ru11_0 2.795946 1_555
Co3_2 Ru10_3 2.795946 1_555
Co3_2 Ru10_2 2.795946 1_555
Co3_3 Ru15_2 2.573400 1_556
Co3_3 Ru15_3 2.573400 1_555
Co3_3 Ru17_2 2.573400 1_556
Co3_3 Ru17_3 2.573400 1_555
Co3_3 Ru11_1 2.795946 1_555
Co3_3 Ru11_0 2.795946 1_556
Co3_3 Ru10_2 2.795946 1_556
Co3_3 Ru10_3 2.795946 1_555
Co3_4 Ru15_5 2.573400 1_555
Co3_4 Ru15_4 2.573400 1_555
Co3_4 Ru17_4 2.573400 1_555
Co3_4 Ru17_5 2.573400 1_555
Co3_4 Ru10_4 2.795946 1_555
Co3_4 Ru10_5 2.795946 1_555
Co3_4 Ru11_7 2.795946 1_545
Co3_4 Ru11_6 2.795946 1_545
Co3_5 Ru15_5 2.573400 1_555
Co3_5 Ru15_4 2.573400 1_556
Co3_5 Ru17_4 2.573400 1_556
Co3_5 Ru17_5 2.573400 1_555
Co3_5 Ru10_4 2.795946 1_556
Co3_5 Ru10_5 2.795946 1_555
Co3_5 Ru11_7 2.795946 1_545
Co3_5 Ru11_6 2.795946 1_546
Co3_6 Ru15_6 2.573400 1_555
Co3_6 Ru15_7 2.573400 1_555
Co3_6 Ru17_6 2.573400 1_555
Co3_6 Ru17_7 2.573400 1_555
Co3_6 Ru11_4 2.795946 1_555
Co3_6 Ru11_5 2.795946 1_555
Co3_6 Ru10_6 2.795946 1_555
Co3_6 Ru10_7 2.795946 1_555
Co3_7 Ru15_6 2.573400 1_556
Co3_7 Ru15_7 2.573400 1_555
Co3_7 Ru17_6 2.573400 1_556
Co3_7 Ru17_7 2.573400 1_555
Co3_7 Ru11_4 2.795946 1_556
Co3_7 Ru11_5 2.795946 1_555
Co3_7 Ru10_6 2.795946 1_556
Co3_7 Ru10_7 2.795946 1_555
B0_0 Ru28_0 2.162961 1_555
B0_0 Ru28_1 2.162961 1_555
B0_0 Ru20_0 2.178151 1_555
B0_0 Ru20_1 2.178151 1_555
B0_0 Ru0_0 2.230773 1_555
B0_0 Ru0_1 2.230773 1_555
B0_0 Ti11_0 2.637894 1_555
B0_0 Ti0_0 2.699876 1_555
B0_0 Ti6_0 2.762754 1_555
B0_1 Ru28_1 2.162961 1_555
B0_1 Ru28_0 2.162961 1_556
B0_1 Ru20_0 2.178151 1_556
B0_1 Ru20_1 2.178151 1_555
B0_1 Ru0_1 2.230773 1_555
B0_1 Ru0_0 2.230773 1_556
B0_1 Ti11_1 2.637894 1_555
B0_1 Ti0_1 2.699876 1_555
B0_1 Ti6_1 2.762754 1_555
B0_2 Ru28_2 2.162961 1_555
B0_2 Ru28_3 2.162961 1_555
B0_2 Ru20_3 2.178151 1_555
B0_2 Ru20_2 2.178151 1_555
B0_2 Ru0_3 2.230773 1_555
B0_2 Ru0_2 2.230773 1_555
B0_2 Ti11_2 2.637894 1_555
B0_2 Ti0_2 2.699876 1_555
B0_2 Ti6_2 2.762754 1_555
B0_3 Ru28_2 2.162961 1_556
B0_3 Ru28_3 2.162961 1_555
B0_3 Ru20_3 2.178151 1_555
B0_3 Ru20_2 2.178151 1_556
B0_3 Ru0_2 2.230773 1_556
B0_3 Ru0_3 2.230773 1_555
B0_3 Ti11_3 2.637894 1_555
B0_3 Ti0_3 2.699876 1_555
B0_3 Ti6_3 2.762754 1_555
B0_4 Ru28_4 2.162961 1_555
B0_4 Ru28_5 2.162961 1_555
B0_4 Ru20_4 2.178151 1_555
B0_4 Ru20_5 2.178151 1_555
B0_4 Ru0_4 2.230773 1_555
B0_4 Ru0_5 2.230773 1_555
B0_4 Ti11_4 2.637894 1_555
B0_4 Ti0_4 2.699876 1_555
B0_4 Ti6_4 2.762754 1_555
B0_5 Ru28_4 2.162961 1_556
B0_5 Ru28_5 2.162961 1_555
B0_5 Ru20_4 2.178151 1_556
B0_5 Ru20_5 2.178151 1_555
B0_5 Ru0_4 2.230773 1_556
B0_5 Ru0_5 2.230773 1_555
B0_5 Ti11_5 2.637894 1_555
B0_5 Ti0_5 2.699876 1_555
B0_5 Ti6_5 2.762754 1_555
B0_6 Ru28_7 2.162961 1_555
B0_6 Ru28_6 2.162961 1_555
B0_6 Ru20_7 2.178151 1_555
B0_6 Ru20_6 2.178151 1_555
B0_6 Ru0_6 2.230773 1_555
B0_6 Ru0_7 2.230773 1_555
B0_6 Ti11_6 2.637894 1_555
B0_6 Ti0_6 2.699876 1_555
B0_6 Ti6_6 2.762754 1_555
B0_7 Ru28_7 2.162961 1_555
B0_7 Ru28_6 2.162961 1_556
B0_7 Ru20_7 2.178151 1_555
B0_7 Ru20_6 2.178151 1_556
B0_7 Ru0_7 2.230773 1_555
B0_7 Ru0_6 2.230773 1_556
B0_7 Ti11_7 2.637894 1_555
B0_7 Ti0_7 2.699876 1_555
B0_7 Ti6_7 2.762754 1_555
B1_0 Ru29_0 2.162961 1_555
B1_0 Ru29_1 2.162961 1_555
B1_0 Ru21_0 2.178151 1_555
B1_0 Ru21_1 2.178151 1_555
B1_0 Ru1_0 2.230773 1_555
B1_0 Ru1_1 2.230773 1_555
B1_0 Ti10_0 2.637894 1_555
B1_0 Ti1_0 2.699876 1_555
B1_0 Ti7_0 2.762754 1_555
B1_1 Ru29_0 2.162961 1_556
B1_1 Ru29_1 2.162961 1_555
B1_1 Ru21_0 2.178151 1_556
B1_1 Ru21_1 2.178151 1_555
B1_1 Ru1_0 2.230773 1_556
B1_1 Ru1_1 2.230773 1_555
B1_1 Ti10_1 2.637894 1_555
B1_1 Ti1_1 2.699876 1_555
B1_1 Ti7_1 2.762754 1_555
B1_2 Ru29_2 2.162961 1_555
B1_2 Ru29_3 2.162961 1_555
B1_2 Ru21_2 2.178151 1_555
B1_2 Ru21_3 2.178151 1_555
B1_2 Ru1_3 2.230773 1_555
B1_2 Ru1_2 2.230773 1_555
B1_2 Ti10_2 2.637894 1_555
B1_2 Ti1_2 2.699876 1_555
B1_2 Ti7_2 2.762754 1_555
B1_3 Ru29_2 2.162961 1_556
B1_3 Ru29_3 2.162961 1_555
B1_3 Ru21_2 2.178151 1_556
B1_3 Ru21_3 2.178151 1_555
B1_3 Ru1_3 2.230773 1_555
B1_3 Ru1_2 2.230773 1_556
B1_3 Ti10_3 2.637894 1_555
B1_3 Ti1_3 2.699876 1_555
B1_3 Ti7_3 2.762754 1_555
B1_4 Ru29_4 2.162961 1_555
B1_4 Ru29_5 2.162961 1_555
B1_4 Ru21_5 2.178151 1_555
B1_4 Ru21_4 2.178151 1_555
B1_4 Ru1_5 2.230773 1_555
B1_4 Ru1_4 2.230773 1_555
B1_4 Ti10_4 2.637894 1_555
B1_4 Ti1_4 2.699876 1_555
B1_4 Ti7_4 2.762754 1_555
B1_5 Ru29_4 2.162961 1_556
B1_5 Ru29_5 2.162961 1_555
B1_5 Ru21_5 2.178151 1_555
B1_5 Ru21_4 2.178151 1_556
B1_5 Ru1_4 2.230773 1_556
B1_5 Ru1_5 2.230773 1_555
B1_5 Ti10_5 2.637894 1_555
B1_5 Ti1_5 2.699876 1_555
B1_5 Ti7_5 2.762754 1_555
B1_6 Ru29_6 2.162961 1_555
B1_6 Ru29_7 2.162961 1_555
B1_6 Ru21_6 2.178151 1_555
B1_6 Ru21_7 2.178151 1_555
B1_6 Ru1_6 2.230773 1_555
B1_6 Ru1_7 2.230773 1_555
B1_6 Ti10_6 2.637894 1_555
B1_6 Ti1_6 2.699876 1_555
B1_6 Ti7_6 2.762754 1_555
B1_7 Ru29_6 2.162961 1_556
B1_7 Ru29_7 2.162961 1_555
B1_7 Ru21_6 2.178151 1_556
B1_7 Ru21_7 2.178151 1_555
B1_7 Ru1_7 2.230773 1_555
B1_7 Ru1_6 2.230773 1_556
B1_7 Ti10_7 2.637894 1_555
B1_7 Ti1_7 2.699876 1_555
B1_7 Ti7_7 2.762754 1_555
B2_0 Ru30_0 2.162961 1_555
B2_0 Ru30_1 2.162961 1_555
B2_0 Ru22_1 2.178151 1_555
B2_0 Ru22_0 2.178151 1_555
B2_0 Ru2_1 2.230773 1_555
B2_0 Ru2_0 2.230773 1_555
B2_0 Ti12_0 2.637894 1_555
B2_0 Ti2_0 2.699876 1_555
B2_0 Ti8_2 2.762754 1_545
B2_1 Ru30_0 2.162961 1_556
B2_1 Ru30_1 2.162961 1_555
B2_1 Ru22_0 2.178151 1_556
B2_1 Ru22_1 2.178151 1_555
B2_1 Ru2_0 2.230773 1_556
B2_1 Ru2_1 2.230773 1_555
B2_1 Ti12_1 2.637894 1_555
B2_1 Ti2_1 2.699876 1_555
B2_1 Ti8_3 2.762754 1_545
B2_2 Ru30_2 2.162961 1_555
B2_2 Ru30_3 2.162961 1_555
B2_2 Ru22_2 2.178151 1_555
B2_2 Ru22_3 2.178151 1_555
B2_2 Ru2_2 2.230773 1_555
B2_2 Ru2_3 2.230773 1_555
B2_2 Ti12_2 2.637894 1_555
B2_2 Ti2_2 2.699876 1_555
B2_2 Ti8_0 2.762754 1_555
B2_3 Ru30_2 2.162961 1_556
B2_3 Ru30_3 2.162961 1_555
B2_3 Ru22_3 2.178151 1_555
B2_3 Ru22_2 2.178151 1_556
B2_3 Ru2_2 2.230773 1_556
B2_3 Ru2_3 2.230773 1_555
B2_3 Ti12_3 2.637894 1_555
B2_3 Ti2_3 2.699876 1_555
B2_3 Ti8_1 2.762754 1_555
B2_4 Ru30_5 2.162961 1_555
B2_4 Ru30_4 2.162961 1_555
B2_4 Ru22_4 2.178151 1_555
B2_4 Ru22_5 2.178151 1_555
B2_4 Ru2_5 2.230773 1_555
B2_4 Ru2_4 2.230773 1_555
B2_4 Ti12_4 2.637894 1_555
B2_4 Ti2_4 2.699876 1_555
B2_4 Ti8_6 2.762754 1_545
B2_5 Ru30_4 2.162961 1_556
B2_5 Ru30_5 2.162961 1_555
B2_5 Ru22_4 2.178151 1_556
B2_5 Ru22_5 2.178151 1_555
B2_5 Ru2_5 2.230773 1_555
B2_5 Ru2_4 2.230773 1_556
B2_5 Ti12_5 2.637894 1_555
B2_5 Ti2_5 2.699876 1_555
B2_5 Ti8_7 2.762754 1_545
B2_6 Ru30_6 2.162961 1_555
B2_6 Ru30_7 2.162961 1_555
B2_6 Ru22_6 2.178151 1_555
B2_6 Ru22_7 2.178151 1_555
B2_6 Ru2_6 2.230773 1_555
B2_6 Ru2_7 2.230773 1_555
B2_6 Ti12_6 2.637894 1_555
B2_6 Ti2_6 2.699876 1_555
B2_6 Ti8_4 2.762754 1_555
B2_7 Ru30_6 2.162961 1_556
B2_7 Ru30_7 2.162961 1_555
B2_7 Ru22_6 2.178151 1_556
B2_7 Ru22_7 2.178151 1_555
B2_7 Ru2_7 2.230773 1_555
B2_7 Ru2_6 2.230773 1_556
B2_7 Ti12_7 2.637894 1_555
B2_7 Ti2_7 2.699876 1_555
B2_7 Ti8_5 2.762754 1_555
B3_0 Ru31_0 2.162961 1_555
B3_0 Ru31_1 2.162961 1_555
B3_0 Ru23_1 2.178151 1_555
B3_0 Ru23_0 2.178151 1_555
B3_0 Ru3_1 2.230773 1_555
B3_0 Ru3_0 2.230773 1_555
B3_0 Ti13_0 2.637894 1_555
B3_0 Ti3_0 2.699876 1_555
B3_0 Ti9_2 2.762754 1_555
B3_1 Ru31_0 2.162961 1_556
B3_1 Ru31_1 2.162961 1_555
B3_1 Ru23_1 2.178151 1_555
B3_1 Ru23_0 2.178151 1_556
B3_1 Ru3_1 2.230773 1_555
B3_1 Ru3_0 2.230773 1_556
B3_1 Ti13_1 2.637894 1_555
B3_1 Ti3_1 2.699876 1_555
B3_1 Ti9_3 2.762754 1_555
B3_2 Ru31_2 2.162961 1_555
B3_2 Ru31_3 2.162961 1_555
B3_2 Ru23_3 2.178151 1_555
B3_2 Ru23_2 2.178151 1_555
B3_2 Ru3_3 2.230773 1_555
B3_2 Ru3_2 2.230773 1_555
B3_2 Ti13_2 2.637894 1_555
B3_2 Ti3_2 2.699876 1_555
B3_2 Ti9_0 2.762754 1_565
B3_3 Ru31_3 2.162961 1_555
B3_3 Ru31_2 2.162961 1_556
B3_3 Ru23_3 2.178151 1_555
B3_3 Ru23_2 2.178151 1_556
B3_3 Ru3_3 2.230773 1_555
B3_3 Ru3_2 2.230773 1_556
B3_3 Ti13_3 2.637894 1_555
B3_3 Ti3_3 2.699876 1_555
B3_3 Ti9_1 2.762754 1_565
B3_4 Ru31_4 2.162961 1_555
B3_4 Ru31_5 2.162961 1_555
B3_4 Ru23_5 2.178151 1_555
B3_4 Ru23_4 2.178151 1_555
B3_4 Ru3_4 2.230773 1_555
B3_4 Ru3_5 2.230773 1_555
B3_4 Ti13_4 2.637894 1_555
B3_4 Ti3_4 2.699876 1_555
B3_4 Ti9_6 2.762754 1_555
B3_5 Ru31_4 2.162961 1_556
B3_5 Ru31_5 2.162961 1_555
B3_5 Ru23_5 2.178151 1_555
B3_5 Ru23_4 2.178151 1_556
B3_5 Ru3_5 2.230773 1_555
B3_5 Ru3_4 2.230773 1_556
B3_5 Ti13_5 2.637894 1_555
B3_5 Ti3_5 2.699876 1_555
B3_5 Ti9_7 2.762754 1_555
B3_6 Ru31_7 2.162961 1_555
B3_6 Ru31_6 2.162961 1_555
B3_6 Ru23_6 2.178151 1_555
B3_6 Ru23_7 2.178151 1_555
B3_6 Ru3_7 2.230773 1_555
B3_6 Ru3_6 2.230773 1_555
B3_6 Ti13_6 2.637894 1_555
B3_6 Ti3_6 2.699876 1_555
B3_6 Ti9_4 2.762754 1_565
B3_7 Ru31_7 2.162961 1_555
B3_7 Ru31_6 2.162961 1_556
B3_7 Ru23_6 2.178151 1_556
B3_7 Ru23_7 2.178151 1_555
B3_7 Ru3_6 2.230773 1_556
B3_7 Ru3_7 2.230773 1_555
B3_7 Ti13_7 2.637894 1_555
B3_7 Ti3_7 2.699876 1_555
B3_7 Ti9_5 2.762754 1_565
B4_0 Ru32_1 2.162961 1_555
B4_0 Ru32_0 2.162961 1_555
B4_0 Ru24_1 2.178151 1_555
B4_0 Ru24_0 2.178151 1_555
B4_0 Ru4_1 2.230773 1_555
B4_0 Ru4_0 2.230773 1_555
B4_0 Ti6_0 2.637894 1_555
B4_0 Ti3_0 2.699876 1_555
B4_0 Ti10_0 2.762754 1_555
B4_1 Ru32_1 2.162961 1_555
B4_1 Ru32_0 2.162961 1_556
B4_1 Ru24_1 2.178151 1_555
B4_1 Ru24_0 2.178151 1_556
B4_1 Ru4_1 2.230773 1_555
B4_1 Ru4_0 2.230773 1_556
B4_1 Ti6_1 2.637894 1_555
B4_1 Ti3_1 2.699876 1_555
B4_1 Ti10_1 2.762754 1_555
B4_2 Ru32_2 2.162961 1_555
B4_2 Ru32_3 2.162961 1_555
B4_2 Ru24_2 2.178151 1_555
B4_2 Ru24_3 2.178151 1_555
B4_2 Ru4_3 2.230773 1_555
B4_2 Ru4_2 2.230773 1_555
B4_2 Ti6_2 2.637894 1_555
B4_2 Ti3_2 2.699876 1_555
B4_2 Ti10_2 2.762754 1_555
B4_3 Ru32_2 2.162961 1_556
B4_3 Ru32_3 2.162961 1_555
B4_3 Ru24_2 2.178151 1_556
B4_3 Ru24_3 2.178151 1_555
B4_3 Ru4_2 2.230773 1_556
B4_3 Ru4_3 2.230773 1_555
B4_3 Ti6_3 2.637894 1_555
B4_3 Ti3_3 2.699876 1_555
B4_3 Ti10_3 2.762754 1_555
B4_4 Ru32_5 2.162961 1_555
B4_4 Ru32_4 2.162961 1_555
B4_4 Ru24_4 2.178151 1_555
B4_4 Ru24_5 2.178151 1_555
B4_4 Ru4_4 2.230773 1_555
B4_4 Ru4_5 2.230773 1_555
B4_4 Ti6_4 2.637894 1_555
B4_4 Ti3_4 2.699876 1_555
B4_4 Ti10_4 2.762754 1_555
B4_5 Ru32_5 2.162961 1_555
B4_5 Ru32_4 2.162961 1_556
B4_5 Ru24_4 2.178151 1_556
B4_5 Ru24_5 2.178151 1_555
B4_5 Ru4_4 2.230773 1_556
B4_5 Ru4_5 2.230773 1_555
B4_5 Ti6_5 2.637894 1_555
B4_5 Ti3_5 2.699876 1_555
B4_5 Ti10_5 2.762754 1_555
B4_6 Ru32_6 2.162961 1_555
B4_6 Ru32_7 2.162961 1_555
B4_6 Ru24_6 2.178151 1_555
B4_6 Ru24_7 2.178151 1_555
B4_6 Ru4_6 2.230773 1_555
B4_6 Ru4_7 2.230773 1_555
B4_6 Ti6_6 2.637894 1_555
B4_6 Ti3_6 2.699876 1_555
B4_6 Ti10_6 2.762754 1_555
B4_7 Ru32_6 2.162961 1_556
B4_7 Ru32_7 2.162961 1_555
B4_7 Ru24_6 2.178151 1_556
B4_7 Ru24_7 2.178151 1_555
B4_7 Ru4_7 2.230773 1_555
B4_7 Ru4_6 2.230773 1_556
B4_7 Ti6_7 2.637894 1_555
B4_7 Ti3_7 2.699876 1_555
B4_7 Ti10_7 2.762754 1_555
B5_0 Ru33_1 2.162961 1_555
B5_0 Ru33_0 2.162961 1_555
B5_0 Ru25_0 2.178151 1_555
B5_0 Ru25_1 2.178151 1_555
B5_0 Ru5_1 2.230773 1_555
B5_0 Ru5_0 2.230773 1_555
B5_0 Ti7_0 2.637894 1_555
B5_0 Ti2_0 2.699876 1_555
B5_0 Ti11_0 2.762754 1_555
B5_1 Ru33_1 2.162961 1_555
B5_1 Ru33_0 2.162961 1_556
B5_1 Ru25_0 2.178151 1_556
B5_1 Ru25_1 2.178151 1_555
B5_1 Ru5_0 2.230773 1_556
B5_1 Ru5_1 2.230773 1_555
B5_1 Ti7_1 2.637894 1_555
B5_1 Ti2_1 2.699876 1_555
B5_1 Ti11_1 2.762754 1_555
B5_2 Ru33_2 2.162961 1_555
B5_2 Ru33_3 2.162961 1_555
B5_2 Ru25_2 2.178151 1_555
B5_2 Ru25_3 2.178151 1_555
B5_2 Ru5_2 2.230773 1_555
B5_2 Ru5_3 2.230773 1_555
B5_2 Ti7_2 2.637894 1_555
B5_2 Ti2_2 2.699876 1_555
B5_2 Ti11_2 2.762754 1_555
B5_3 Ru33_2 2.162961 1_556
B5_3 Ru33_3 2.162961 1_555
B5_3 Ru25_2 2.178151 1_556
B5_3 Ru25_3 2.178151 1_555
B5_3 Ru5_2 2.230773 1_556
B5_3 Ru5_3 2.230773 1_555
B5_3 Ti7_3 2.637894 1_555
B5_3 Ti2_3 2.699876 1_555
B5_3 Ti11_3 2.762754 1_555
B5_4 Ru33_5 2.162961 1_555
B5_4 Ru33_4 2.162961 1_555
B5_4 Ru25_4 2.178151 1_555
B5_4 Ru25_5 2.178151 1_555
B5_4 Ru5_5 2.230773 1_555
B5_4 Ru5_4 2.230773 1_555
B5_4 Ti7_4 2.637894 1_555
B5_4 Ti2_4 2.699876 1_555
B5_4 Ti11_4 2.762754 1_555
B5_5 Ru33_5 2.162961 1_555
B5_5 Ru33_4 2.162961 1_556
B5_5 Ru25_4 2.178151 1_556
B5_5 Ru25_5 2.178151 1_555
B5_5 Ru5_4 2.230773 1_556
B5_5 Ru5_5 2.230773 1_555
B5_5 Ti7_5 2.637894 1_555
B5_5 Ti2_5 2.699876 1_555
B5_5 Ti11_5 2.762754 1_555
B5_6 Ru33_7 2.162961 1_555
B5_6 Ru33_6 2.162961 1_555
B5_6 Ru25_7 2.178151 1_555
B5_6 Ru25_6 2.178151 1_555
B5_6 Ru5_6 2.230773 1_555
B5_6 Ru5_7 2.230773 1_555
B5_6 Ti7_6 2.637894 1_555
B5_6 Ti2_6 2.699876 1_555
B5_6 Ti11_6 2.762754 1_555
B5_7 Ru33_7 2.162961 1_555
B5_7 Ru33_6 2.162961 1_556
B5_7 Ru25_6 2.178151 1_556
B5_7 Ru25_7 2.178151 1_555
B5_7 Ru5_6 2.230773 1_556
B5_7 Ru5_7 2.230773 1_555
B5_7 Ti7_7 2.637894 1_555
B5_7 Ti2_7 2.699876 1_555
B5_7 Ti11_7 2.762754 1_555
B6_0 Ru34_1 2.162961 1_555
B6_0 Ru34_0 2.162961 1_555
B6_0 Ru26_0 2.178151 1_555
B6_0 Ru26_1 2.178151 1_555
B6_0 Ru6_0 2.230773 1_555
B6_0 Ru6_1 2.230773 1_555
B6_0 Ti9_0 2.637894 1_555
B6_0 Ti0_0 2.699876 1_555
B6_0 Ti12_4 2.762754 1_555
B6_1 Ru34_1 2.162961 1_555
B6_1 Ru34_0 2.162961 1_556
B6_1 Ru26_0 2.178151 1_556
B6_1 Ru26_1 2.178151 1_555
B6_1 Ru6_0 2.230773 1_556
B6_1 Ru6_1 2.230773 1_555
B6_1 Ti9_1 2.637894 1_555
B6_1 Ti0_1 2.699876 1_555
B6_1 Ti12_5 2.762754 1_555
B6_2 Ru34_3 2.162961 1_555
B6_2 Ru34_2 2.162961 1_555
B6_2 Ru26_3 2.178151 1_555
B6_2 Ru26_2 2.178151 1_555
B6_2 Ru6_3 2.230773 1_555
B6_2 Ru6_2 2.230773 1_555
B6_2 Ti9_2 2.637894 1_555
B6_2 Ti0_2 2.699876 1_555
B6_2 Ti12_6 2.762754 1_555
B6_3 Ru34_3 2.162961 1_555
B6_3 Ru34_2 2.162961 1_556
B6_3 Ru26_3 2.178151 1_555
B6_3 Ru26_2 2.178151 1_556
B6_3 Ru6_2 2.230773 1_556
B6_3 Ru6_3 2.230773 1_555
B6_3 Ti9_3 2.637894 1_555
B6_3 Ti0_3 2.699876 1_555
B6_3 Ti12_7 2.762754 1_555
B6_4 Ru34_5 2.162961 1_555
B6_4 Ru34_4 2.162961 1_555
B6_4 Ru26_4 2.178151 1_555
B6_4 Ru26_5 2.178151 1_555
B6_4 Ru6_5 2.230773 1_555
B6_4 Ru6_4 2.230773 1_555
B6_4 Ti9_4 2.637894 1_555
B6_4 Ti0_4 2.699876 1_555
B6_4 Ti12_0 2.762754 1_655
B6_5 Ru34_5 2.162961 1_555
B6_5 Ru34_4 2.162961 1_556
B6_5 Ru26_4 2.178151 1_556
B6_5 Ru26_5 2.178151 1_555
B6_5 Ru6_5 2.230773 1_555
B6_5 Ru6_4 2.230773 1_556
B6_5 Ti9_5 2.637894 1_555
B6_5 Ti0_5 2.699876 1_555
B6_5 Ti12_1 2.762754 1_655
B6_6 Ru34_7 2.162961 1_555
B6_6 Ru34_6 2.162961 1_555
B6_6 Ru26_7 2.178151 1_555
B6_6 Ru26_6 2.178151 1_555
B6_6 Ru6_6 2.230773 1_555
B6_6 Ru6_7 2.230773 1_555
B6_6 Ti9_6 2.637894 1_555
B6_6 Ti0_6 2.699876 1_555
B6_6 Ti12_2 2.762754 1_655
B6_7 Ru34_6 2.162961 1_556
B6_7 Ru34_7 2.162961 1_555
B6_7 Ru26_6 2.178151 1_556
B6_7 Ru26_7 2.178151 1_555
B6_7 Ru6_6 2.230773 1_556
B6_7 Ru6_7 2.230773 1_555
B6_7 Ti9_7 2.637894 1_555
B6_7 Ti0_7 2.699876 1_555
B6_7 Ti12_3 2.762754 1_655
B7_0 Ru35_1 2.162961 1_555
B7_0 Ru35_0 2.162961 1_555
B7_0 Ru27_0 2.178151 1_555
B7_0 Ru27_1 2.178151 1_555
B7_0 Ru7_0 2.230773 1_555
B7_0 Ru7_1 2.230773 1_555
B7_0 Ti8_0 2.637894 1_555
B7_0 Ti1_0 2.699876 1_555
B7_0 Ti13_4 2.762754 1_455
B7_1 Ru35_0 2.162961 1_556
B7_1 Ru35_1 2.162961 1_555
B7_1 Ru27_0 2.178151 1_556
B7_1 Ru27_1 2.178151 1_555
B7_1 Ru7_1 2.230773 1_555
B7_1 Ru7_0 2.230773 1_556
B7_1 Ti8_1 2.637894 1_555
B7_1 Ti1_1 2.699876 1_555
B7_1 Ti13_5 2.762754 1_455
B7_2 Ru35_3 2.162961 1_555
B7_2 Ru35_2 2.162961 1_555
B7_2 Ru27_2 2.178151 1_555
B7_2 Ru27_3 2.178151 1_555
B7_2 Ru7_3 2.230773 1_555
B7_2 Ru7_2 2.230773 1_555
B7_2 Ti8_2 2.637894 1_555
B7_2 Ti1_2 2.699876 1_555
B7_2 Ti13_6 2.762754 1_455
B7_3 Ru35_3 2.162961 1_555
B7_3 Ru35_2 2.162961 1_556
B7_3 Ru27_2 2.178151 1_556
B7_3 Ru27_3 2.178151 1_555
B7_3 Ru7_3 2.230773 1_555
B7_3 Ru7_2 2.230773 1_556
B7_3 Ti8_3 2.637894 1_555
B7_3 Ti1_3 2.699876 1_555
B7_3 Ti13_7 2.762754 1_455
B7_4 Ru35_4 2.162961 1_555
B7_4 Ru35_5 2.162961 1_555
B7_4 Ru27_4 2.178151 1_555
B7_4 Ru27_5 2.178151 1_555
B7_4 Ru7_5 2.230773 1_555
B7_4 Ru7_4 2.230773 1_555
B7_4 Ti8_4 2.637894 1_555
B7_4 Ti1_4 2.699876 1_555
B7_4 Ti13_0 2.762754 1_555
B7_5 Ru35_4 2.162961 1_556
B7_5 Ru35_5 2.162961 1_555
B7_5 Ru27_4 2.178151 1_556
B7_5 Ru27_5 2.178151 1_555
B7_5 Ru7_5 2.230773 1_555
B7_5 Ru7_4 2.230773 1_556
B7_5 Ti8_5 2.637894 1_555
B7_5 Ti1_5 2.699876 1_555
B7_5 Ti13_1 2.762754 1_555
B7_6 Ru35_6 2.162961 1_555
B7_6 Ru35_7 2.162961 1_555
B7_6 Ru27_6 2.178151 1_555
B7_6 Ru27_7 2.178151 1_555
B7_6 Ru7_6 2.230773 1_555
B7_6 Ru7_7 2.230773 1_555
B7_6 Ti8_6 2.637894 1_555
B7_6 Ti1_6 2.699876 1_555
B7_6 Ti13_2 2.762754 1_555
B7_7 Ru35_6 2.162961 1_556
B7_7 Ru35_7 2.162961 1_555
B7_7 Ru27_7 2.178151 1_555
B7_7 Ru27_6 2.178151 1_556
B7_7 Ru7_6 2.230773 1_556
B7_7 Ru7_7 2.230773 1_555
B7_7 Ti8_7 2.637894 1_555
B7_7 Ti1_7 2.699876 1_555
B7_7 Ti13_3 2.762754 1_555
B8_0 Ru12_0 2.163724 1_555
B8_0 Ru12_1 2.163724 1_555
B8_0 Ru0_0 2.212766 1_555
B8_0 Ru0_1 2.212766 1_555
B8_0 Ru8_1 2.220794 1_555
B8_0 Ru8_0 2.220794 1_555
B8_0 Co0_0 2.524469 1_555
B8_0 Ti0_0 2.859987 1_555
B8_0 Ti6_0 2.943087 1_555
B8_1 Ru12_0 2.163724 1_556
B8_1 Ru12_1 2.163724 1_555
B8_1 Ru0_1 2.212766 1_555
B8_1 Ru0_0 2.212766 1_556
B8_1 Ru8_1 2.220794 1_555
B8_1 Ru8_0 2.220794 1_556
B8_1 Co0_1 2.524469 1_555
B8_1 Ti0_1 2.859987 1_555
B8_1 Ti6_1 2.943087 1_555
B8_2 Ru12_2 2.163724 1_555
B8_2 Ru12_3 2.163724 1_555
B8_2 Ru0_3 2.212766 1_555
B8_2 Ru0_2 2.212766 1_555
B8_2 Ru8_2 2.220794 1_555
B8_2 Ru8_3 2.220794 1_555
B8_2 Co0_2 2.524469 1_555
B8_2 Ti0_2 2.859987 1_555
B8_2 Ti6_2 2.943087 1_555
B8_3 Ru12_2 2.163724 1_556
B8_3 Ru12_3 2.163724 1_555
B8_3 Ru0_3 2.212766 1_555
B8_3 Ru0_2 2.212766 1_556
B8_3 Ru8_2 2.220794 1_556
B8_3 Ru8_3 2.220794 1_555
B8_3 Co0_3 2.524469 1_555
B8_3 Ti0_3 2.859987 1_555
B8_3 Ti6_3 2.943087 1_555
B8_4 Ru12_4 2.163724 1_555
B8_4 Ru12_5 2.163724 1_555
B8_4 Ru0_5 2.212766 1_555
B8_4 Ru0_4 2.212766 1_555
B8_4 Ru8_4 2.220794 1_555
B8_4 Ru8_5 2.220794 1_555
B8_4 Co0_4 2.524469 1_555
B8_4 Ti0_4 2.859987 1_555
B8_4 Ti6_4 2.943087 1_555
B8_5 Ru12_5 2.163724 1_555
B8_5 Ru12_4 2.163724 1_556
B8_5 Ru0_5 2.212766 1_555
B8_5 Ru0_4 2.212766 1_556
B8_5 Ru8_5 2.220794 1_555
B8_5 Ru8_4 2.220794 1_556
B8_5 Co0_5 2.524469 1_555
B8_5 Ti0_5 2.859987 1_555
B8_5 Ti6_5 2.943087 1_555
B8_6 Ru12_6 2.163724 1_555
B8_6 Ru12_7 2.163724 1_555
B8_6 Ru0_7 2.212766 1_555
B8_6 Ru0_6 2.212766 1_555
B8_6 Ru8_7 2.220794 1_555
B8_6 Ru8_6 2.220794 1_555
B8_6 Co0_6 2.524469 1_555
B8_6 Ti0_6 2.859987 1_555
B8_6 Ti6_6 2.943087 1_555
B8_7 Ru12_6 2.163724 1_556
B8_7 Ru12_7 2.163724 1_555
B8_7 Ru0_7 2.212766 1_555
B8_7 Ru0_6 2.212766 1_556
B8_7 Ru8_7 2.220794 1_555
B8_7 Ru8_6 2.220794 1_556
B8_7 Co0_7 2.524469 1_555
B8_7 Ti0_7 2.859987 1_555
B8_7 Ti6_7 2.943087 1_555
B9_0 Ru13_1 2.163724 1_555
B9_0 Ru13_0 2.163724 1_555
B9_0 Ru1_1 2.212766 1_555
B9_0 Ru1_0 2.212766 1_555
B9_0 Ru9_0 2.220794 1_555
B9_0 Ru9_1 2.220794 1_555
B9_0 Co1_0 2.524469 1_555
B9_0 Ti1_0 2.859987 1_555
B9_0 Ti7_0 2.943087 1_555
B9_1 Ru13_0 2.163724 1_556
B9_1 Ru13_1 2.163724 1_555
B9_1 Ru1_0 2.212766 1_556
B9_1 Ru1_1 2.212766 1_555
B9_1 Ru9_0 2.220794 1_556
B9_1 Ru9_1 2.220794 1_555
B9_1 Co1_1 2.524469 1_555
B9_1 Ti1_1 2.859987 1_555
B9_1 Ti7_1 2.943087 1_555
B9_2 Ru13_2 2.163724 1_555
B9_2 Ru13_3 2.163724 1_555
B9_2 Ru1_2 2.212766 1_555
B9_2 Ru1_3 2.212766 1_555
B9_2 Ru9_2 2.220794 1_555
B9_2 Ru9_3 2.220794 1_555
B9_2 Co1_2 2.524469 1_555
B9_2 Ti1_2 2.859987 1_555
B9_2 Ti7_2 2.943087 1_555
B9_3 Ru13_2 2.163724 1_556
B9_3 Ru13_3 2.163724 1_555
B9_3 Ru1_2 2.212766 1_556
B9_3 Ru1_3 2.212766 1_555
B9_3 Ru9_2 2.220794 1_556
B9_3 Ru9_3 2.220794 1_555
B9_3 Co1_3 2.524469 1_555
B9_3 Ti1_3 2.859987 1_555
B9_3 Ti7_3 2.943087 1_555
B9_4 Ru13_4 2.163724 1_555
B9_4 Ru13_5 2.163724 1_555
B9_4 Ru1_4 2.212766 1_555
B9_4 Ru1_5 2.212766 1_555
B9_4 Ru9_4 2.220794 1_555
B9_4 Ru9_5 2.220794 1_555
B9_4 Co1_4 2.524469 1_555
B9_4 Ti1_4 2.859987 1_555
B9_4 Ti7_4 2.943087 1_555
B9_5 Ru13_4 2.163724 1_556
B9_5 Ru13_5 2.163724 1_555
B9_5 Ru1_5 2.212766 1_555
B9_5 Ru1_4 2.212766 1_556
B9_5 Ru9_4 2.220794 1_556
B9_5 Ru9_5 2.220794 1_555
B9_5 Co1_5 2.524469 1_555
B9_5 Ti1_5 2.859987 1_555
B9_5 Ti7_5 2.943087 1_555
B9_6 Ru13_7 2.163724 1_555
B9_6 Ru13_6 2.163724 1_555
B9_6 Ru1_6 2.212766 1_555
B9_6 Ru1_7 2.212766 1_555
B9_6 Ru9_6 2.220794 1_555
B9_6 Ru9_7 2.220794 1_555
B9_6 Co1_6 2.524469 1_555
B9_6 Ti1_6 2.859987 1_555
B9_6 Ti7_6 2.943087 1_555
B9_7 Ru13_6 2.163724 1_556
B9_7 Ru13_7 2.163724 1_555
B9_7 Ru1_7 2.212766 1_555
B9_7 Ru1_6 2.212766 1_556
B9_7 Ru9_6 2.220794 1_556
B9_7 Ru9_7 2.220794 1_555
B9_7 Co1_7 2.524469 1_555
B9_7 Ti1_7 2.859987 1_555
B9_7 Ti7_7 2.943087 1_555
B10_0 Ru14_2 2.163724 1_545
B10_0 Ru14_3 2.163724 1_545
B10_0 Ru2_0 2.212766 1_555
B10_0 Ru2_1 2.212766 1_555
B10_0 Ru10_1 2.220794 1_555
B10_0 Ru10_0 2.220794 1_555
B10_0 Co2_2 2.524469 1_545
B10_0 Ti2_0 2.859987 1_555
B10_0 Ti8_2 2.943087 1_545
B10_1 Ru14_3 2.163724 1_545
B10_1 Ru14_2 2.163724 1_546
B10_1 Ru2_0 2.212766 1_556
B10_1 Ru2_1 2.212766 1_555
B10_1 Ru10_1 2.220794 1_555
B10_1 Ru10_0 2.220794 1_556
B10_1 Co2_3 2.524469 1_545
B10_1 Ti2_1 2.859987 1_555
B10_1 Ti8_3 2.943087 1_545
B10_2 Ru14_0 2.163724 1_555
B10_2 Ru14_1 2.163724 1_555
B10_2 Ru2_3 2.212766 1_555
B10_2 Ru2_2 2.212766 1_555
B10_2 Ru10_3 2.220794 1_555
B10_2 Ru10_2 2.220794 1_555
B10_2 Co2_0 2.524469 1_555
B10_2 Ti2_2 2.859987 1_555
B10_2 Ti8_0 2.943087 1_555
B10_3 Ru14_0 2.163724 1_556
B10_3 Ru14_1 2.163724 1_555
B10_3 Ru2_3 2.212766 1_555
B10_3 Ru2_2 2.212766 1_556
B10_3 Ru10_2 2.220794 1_556
B10_3 Ru10_3 2.220794 1_555
B10_3 Co2_1 2.524469 1_555
B10_3 Ti2_3 2.859987 1_555
B10_3 Ti8_1 2.943087 1_555
B10_4 Ru14_7 2.163724 1_545
B10_4 Ru14_6 2.163724 1_545
B10_4 Ru2_5 2.212766 1_555
B10_4 Ru2_4 2.212766 1_555
B10_4 Ru10_5 2.220794 1_555
B10_4 Ru10_4 2.220794 1_555
B10_4 Co2_6 2.524469 1_545
B10_4 Ti2_4 2.859987 1_555
B10_4 Ti8_6 2.943087 1_545
B10_5 Ru14_7 2.163724 1_545
B10_5 Ru14_6 2.163724 1_546
B10_5 Ru2_5 2.212766 1_555
B10_5 Ru2_4 2.212766 1_556
B10_5 Ru10_4 2.220794 1_556
B10_5 Ru10_5 2.220794 1_555
B10_5 Co2_7 2.524469 1_545
B10_5 Ti2_5 2.859987 1_555
B10_5 Ti8_7 2.943087 1_545
B10_6 Ru14_5 2.163724 1_555
B10_6 Ru14_4 2.163724 1_555
B10_6 Ru2_6 2.212766 1_555
B10_6 Ru2_7 2.212766 1_555
B10_6 Ru10_7 2.220794 1_555
B10_6 Ru10_6 2.220794 1_555
B10_6 Co2_4 2.524469 1_555
B10_6 Ti2_6 2.859987 1_555
B10_6 Ti8_4 2.943087 1_555
B10_7 Ru14_5 2.163724 1_555
B10_7 Ru14_4 2.163724 1_556
B10_7 Ru2_7 2.212766 1_555
B10_7 Ru2_6 2.212766 1_556
B10_7 Ru10_7 2.220794 1_555
B10_7 Ru10_6 2.220794 1_556
B10_7 Co2_5 2.524469 1_555
B10_7 Ti2_7 2.859987 1_555
B10_7 Ti8_5 2.943087 1_555
B11_0 Ru15_2 2.163724 1_555
B11_0 Ru15_3 2.163724 1_555
B11_0 Ru3_1 2.212766 1_555
B11_0 Ru3_0 2.212766 1_555
B11_0 Ru11_1 2.220794 1_555
B11_0 Ru11_0 2.220794 1_555
B11_0 Co3_2 2.524469 1_555
B11_0 Ti3_0 2.859987 1_555
B11_0 Ti9_2 2.943087 1_555
B11_1 Ru15_3 2.163724 1_555
B11_1 Ru15_2 2.163724 1_556
B11_1 Ru3_0 2.212766 1_556
B11_1 Ru3_1 2.212766 1_555
B11_1 Ru11_1 2.220794 1_555
B11_1 Ru11_0 2.220794 1_556
B11_1 Co3_3 2.524469 1_555
B11_1 Ti3_1 2.859987 1_555
B11_1 Ti9_3 2.943087 1_555
B11_2 Ru15_1 2.163724 1_565
B11_2 Ru15_0 2.163724 1_565
B11_2 Ru3_2 2.212766 1_555
B11_2 Ru3_3 2.212766 1_555
B11_2 Ru11_3 2.220794 1_555
B11_2 Ru11_2 2.220794 1_555
B11_2 Co3_0 2.524469 1_565
B11_2 Ti3_2 2.859987 1_555
B11_2 Ti9_0 2.943087 1_565
B11_3 Ru15_1 2.163724 1_565
B11_3 Ru15_0 2.163724 1_566
B11_3 Ru3_2 2.212766 1_556
B11_3 Ru3_3 2.212766 1_555
B11_3 Ru11_3 2.220794 1_555
B11_3 Ru11_2 2.220794 1_556
B11_3 Co3_1 2.524469 1_565
B11_3 Ti3_3 2.859987 1_555
B11_3 Ti9_1 2.943087 1_565
B11_4 Ru15_6 2.163724 1_555
B11_4 Ru15_7 2.163724 1_555
B11_4 Ru3_5 2.212766 1_555
B11_4 Ru3_4 2.212766 1_555
B11_4 Ru11_4 2.220794 1_555
B11_4 Ru11_5 2.220794 1_555
B11_4 Co3_6 2.524469 1_555
B11_4 Ti3_4 2.859987 1_555
B11_4 Ti9_6 2.943087 1_555
B11_5 Ru15_6 2.163724 1_556
B11_5 Ru15_7 2.163724 1_555
B11_5 Ru3_5 2.212766 1_555
B11_5 Ru3_4 2.212766 1_556
B11_5 Ru11_4 2.220794 1_556
B11_5 Ru11_5 2.220794 1_555
B11_5 Co3_7 2.524469 1_555
B11_5 Ti3_5 2.859987 1_555
B11_5 Ti9_7 2.943087 1_555
B11_6 Ru15_4 2.163724 1_565
B11_6 Ru15_5 2.163724 1_565
B11_6 Ru3_7 2.212766 1_555
B11_6 Ru3_6 2.212766 1_555
B11_6 Ru11_7 2.220794 1_555
B11_6 Ru11_6 2.220794 1_555
B11_6 Co3_4 2.524469 1_565
B11_6 Ti3_6 2.859987 1_555
B11_6 Ti9_4 2.943087 1_565
B11_7 Ru15_5 2.163724 1_565
B11_7 Ru15_4 2.163724 1_566
B11_7 Ru3_7 2.212766 1_555
B11_7 Ru3_6 2.212766 1_556
B11_7 Ru11_6 2.220794 1_556
B11_7 Ru11_7 2.220794 1_555
B11_7 Co3_5 2.524469 1_565
B11_7 Ti3_7 2.859987 1_555
B11_7 Ti9_5 2.943087 1_565
B12_0 Ru16_0 2.163724 1_555
B12_0 Ru16_1 2.163724 1_555
B12_0 Ru4_0 2.212766 1_555
B12_0 Ru4_1 2.212766 1_555
B12_0 Ru11_1 2.220794 1_555
B12_0 Ru11_0 2.220794 1_555
B12_0 Co2_0 2.524469 1_555
B12_0 Ti3_0 2.859987 1_555
B12_0 Ti10_0 2.943087 1_555
B12_1 Ru16_1 2.163724 1_555
B12_1 Ru16_0 2.163724 1_556
B12_1 Ru4_1 2.212766 1_555
B12_1 Ru4_0 2.212766 1_556
B12_1 Ru11_1 2.220794 1_555
B12_1 Ru11_0 2.220794 1_556
B12_1 Co2_1 2.524469 1_555
B12_1 Ti3_1 2.859987 1_555
B12_1 Ti10_1 2.943087 1_555
B12_2 Ru16_2 2.163724 1_555
B12_2 Ru16_3 2.163724 1_555
B12_2 Ru4_2 2.212766 1_555
B12_2 Ru4_3 2.212766 1_555
B12_2 Ru11_2 2.220794 1_555
B12_2 Ru11_3 2.220794 1_555
B12_2 Co2_2 2.524469 1_555
B12_2 Ti3_2 2.859987 1_555
B12_2 Ti10_2 2.943087 1_555
B12_3 Ru16_2 2.163724 1_556
B12_3 Ru16_3 2.163724 1_555
B12_3 Ru4_2 2.212766 1_556
B12_3 Ru4_3 2.212766 1_555
B12_3 Ru11_2 2.220794 1_556
B12_3 Ru11_3 2.220794 1_555
B12_3 Co2_3 2.524469 1_555
B12_3 Ti3_3 2.859987 1_555
B12_3 Ti10_3 2.943087 1_555
B12_4 Ru16_5 2.163724 1_555
B12_4 Ru16_4 2.163724 1_555
B12_4 Ru4_4 2.212766 1_555
B12_4 Ru4_5 2.212766 1_555
B12_4 Ru11_5 2.220794 1_555
B12_4 Ru11_4 2.220794 1_555
B12_4 Co2_4 2.524469 1_555
B12_4 Ti3_4 2.859987 1_555
B12_4 Ti10_4 2.943087 1_555
B12_5 Ru16_4 2.163724 1_556
B12_5 Ru16_5 2.163724 1_555
B12_5 Ru4_4 2.212766 1_556
B12_5 Ru4_5 2.212766 1_555
B12_5 Ru11_5 2.220794 1_555
B12_5 Ru11_4 2.220794 1_556
B12_5 Co2_5 2.524469 1_555
B12_5 Ti3_5 2.859987 1_555
B12_5 Ti10_5 2.943087 1_555
B12_6 Ru16_6 2.163724 1_555
B12_6 Ru16_7 2.163724 1_555
B12_6 Ru4_6 2.212766 1_555
B12_6 Ru4_7 2.212766 1_555
B12_6 Ru11_7 2.220794 1_555
B12_6 Ru11_6 2.220794 1_555
B12_6 Co2_6 2.524469 1_555
B12_6 Ti3_6 2.859987 1_555
B12_6 Ti10_6 2.943087 1_555
B12_7 Ru16_6 2.163724 1_556
B12_7 Ru16_7 2.163724 1_555
B12_7 Ru4_6 2.212766 1_556
B12_7 Ru4_7 2.212766 1_555
B12_7 Ru11_7 2.220794 1_555
B12_7 Ru11_6 2.220794 1_556
B12_7 Co2_7 2.524469 1_555
B12_7 Ti3_7 2.859987 1_555
B12_7 Ti10_7 2.943087 1_555
B13_0 Ru17_0 2.163724 1_555
B13_0 Ru17_1 2.163724 1_555
B13_0 Ru5_0 2.212766 1_555
B13_0 Ru5_1 2.212766 1_555
B13_0 Ru10_1 2.220794 1_555
B13_0 Ru10_0 2.220794 1_555
B13_0 Co3_0 2.524469 1_555
B13_0 Ti2_0 2.859987 1_555
B13_0 Ti11_0 2.943087 1_555
B13_1 Ru17_0 2.163724 1_556
B13_1 Ru17_1 2.163724 1_555
B13_1 Ru5_0 2.212766 1_556
B13_1 Ru5_1 2.212766 1_555
B13_1 Ru10_0 2.220794 1_556
B13_1 Ru10_1 2.220794 1_555
B13_1 Co3_1 2.524469 1_555
B13_1 Ti2_1 2.859987 1_555
B13_1 Ti11_1 2.943087 1_555
B13_2 Ru17_3 2.163724 1_555
B13_2 Ru17_2 2.163724 1_555
B13_2 Ru5_2 2.212766 1_555
B13_2 Ru5_3 2.212766 1_555
B13_2 Ru10_3 2.220794 1_555
B13_2 Ru10_2 2.220794 1_555
B13_2 Co3_2 2.524469 1_555
B13_2 Ti2_2 2.859987 1_555
B13_2 Ti11_2 2.943087 1_555
B13_3 Ru17_3 2.163724 1_555
B13_3 Ru17_2 2.163724 1_556
B13_3 Ru5_3 2.212766 1_555
B13_3 Ru5_2 2.212766 1_556
B13_3 Ru10_2 2.220794 1_556
B13_3 Ru10_3 2.220794 1_555
B13_3 Co3_3 2.524469 1_555
B13_3 Ti2_3 2.859987 1_555
B13_3 Ti11_3 2.943087 1_555
B13_4 Ru17_4 2.163724 1_555
B13_4 Ru17_5 2.163724 1_555
B13_4 Ru5_5 2.212766 1_555
B13_4 Ru5_4 2.212766 1_555
B13_4 Ru10_5 2.220794 1_555
B13_4 Ru10_4 2.220794 1_555
B13_4 Co3_4 2.524469 1_555
B13_4 Ti2_4 2.859987 1_555
B13_4 Ti11_4 2.943087 1_555
B13_5 Ru17_4 2.163724 1_556
B13_5 Ru17_5 2.163724 1_555
B13_5 Ru5_5 2.212766 1_555
B13_5 Ru5_4 2.212766 1_556
B13_5 Ru10_5 2.220794 1_555
B13_5 Ru10_4 2.220794 1_556
B13_5 Co3_5 2.524469 1_555
B13_5 Ti2_5 2.859987 1_555
B13_5 Ti11_5 2.943087 1_555
B13_6 Ru17_6 2.163724 1_555
B13_6 Ru17_7 2.163724 1_555
B13_6 Ru5_6 2.212766 1_555
B13_6 Ru5_7 2.212766 1_555
B13_6 Ru10_6 2.220794 1_555
B13_6 Ru10_7 2.220794 1_555
B13_6 Co3_6 2.524469 1_555
B13_6 Ti2_6 2.859987 1_555
B13_6 Ti11_6 2.943087 1_555
B13_7 Ru17_6 2.163724 1_556
B13_7 Ru17_7 2.163724 1_555
B13_7 Ru5_7 2.212766 1_555
B13_7 Ru5_6 2.212766 1_556
B13_7 Ru10_6 2.220794 1_556
B13_7 Ru10_7 2.220794 1_555
B13_7 Co3_7 2.524469 1_555
B13_7 Ti2_7 2.859987 1_555
B13_7 Ti11_7 2.943087 1_555
B14_0 Ru18_4 2.163724 1_555
B14_0 Ru18_5 2.163724 1_555
B14_0 Ru6_0 2.212766 1_555
B14_0 Ru6_1 2.212766 1_555
B14_0 Ru8_0 2.220794 1_555
B14_0 Ru8_1 2.220794 1_555
B14_0 Co1_4 2.524469 1_555
B14_0 Ti0_0 2.859987 1_555
B14_0 Ti12_4 2.943087 1_555
B14_1 Ru18_4 2.163724 1_556
B14_1 Ru18_5 2.163724 1_555
B14_1 Ru6_0 2.212766 1_556
B14_1 Ru6_1 2.212766 1_555
B14_1 Ru8_0 2.220794 1_556
B14_1 Ru8_1 2.220794 1_555
B14_1 Co1_5 2.524469 1_555
B14_1 Ti0_1 2.859987 1_555
B14_1 Ti12_5 2.943087 1_555
B14_2 Ru18_7 2.163724 1_555
B14_2 Ru18_6 2.163724 1_555
B14_2 Ru6_2 2.212766 1_555
B14_2 Ru6_3 2.212766 1_555
B14_2 Ru8_3 2.220794 1_555
B14_2 Ru8_2 2.220794 1_555
B14_2 Co1_6 2.524469 1_555
B14_2 Ti0_2 2.859987 1_555
B14_2 Ti12_6 2.943087 1_555
B14_3 Ru18_7 2.163724 1_555
B14_3 Ru18_6 2.163724 1_556
B14_3 Ru6_2 2.212766 1_556
B14_3 Ru6_3 2.212766 1_555
B14_3 Ru8_2 2.220794 1_556
B14_3 Ru8_3 2.220794 1_555
B14_3 Co1_7 2.524469 1_555
B14_3 Ti0_3 2.859987 1_555
B14_3 Ti12_7 2.943087 1_555
B14_4 Ru18_1 2.163724 1_655
B14_4 Ru18_0 2.163724 1_655
B14_4 Ru6_5 2.212766 1_555
B14_4 Ru6_4 2.212766 1_555
B14_4 Ru8_4 2.220794 1_555
B14_4 Ru8_5 2.220794 1_555
B14_4 Co1_0 2.524469 1_655
B14_4 Ti0_4 2.859987 1_555
B14_4 Ti12_0 2.943087 1_655
B14_5 Ru18_1 2.163724 1_655
B14_5 Ru18_0 2.163724 1_656
B14_5 Ru6_5 2.212766 1_555
B14_5 Ru6_4 2.212766 1_556
B14_5 Ru8_4 2.220794 1_556
B14_5 Ru8_5 2.220794 1_555
B14_5 Co1_1 2.524469 1_655
B14_5 Ti0_5 2.859987 1_555
B14_5 Ti12_1 2.943087 1_655
B14_6 Ru18_2 2.163724 1_655
B14_6 Ru18_3 2.163724 1_655
B14_6 Ru6_6 2.212766 1_555
B14_6 Ru6_7 2.212766 1_555
B14_6 Ru8_7 2.220794 1_555
B14_6 Ru8_6 2.220794 1_555
B14_6 Co1_2 2.524469 1_655
B14_6 Ti0_6 2.859987 1_555
B14_6 Ti12_2 2.943087 1_655
B14_7 Ru18_2 2.163724 1_656
B14_7 Ru18_3 2.163724 1_655
B14_7 Ru6_6 2.212766 1_556
B14_7 Ru6_7 2.212766 1_555
B14_7 Ru8_7 2.220794 1_555
B14_7 Ru8_6 2.220794 1_556
B14_7 Co1_3 2.524469 1_655
B14_7 Ti0_7 2.859987 1_555
B14_7 Ti12_3 2.943087 1_655
B15_0 Ru19_4 2.163724 1_455
B15_0 Ru19_5 2.163724 1_455
B15_0 Ru7_0 2.212766 1_555
B15_0 Ru7_1 2.212766 1_555
B15_0 Ru9_1 2.220794 1_555
B15_0 Ru9_0 2.220794 1_555
B15_0 Co0_4 2.524469 1_455
B15_0 Ti1_0 2.859987 1_555
B15_0 Ti13_4 2.943087 1_455
B15_1 Ru19_4 2.163724 1_456
B15_1 Ru19_5 2.163724 1_455
B15_1 Ru7_1 2.212766 1_555
B15_1 Ru7_0 2.212766 1_556
B15_1 Ru9_1 2.220794 1_555
B15_1 Ru9_0 2.220794 1_556
B15_1 Co0_5 2.524469 1_455
B15_1 Ti1_1 2.859987 1_555
B15_1 Ti13_5 2.943087 1_455
B15_2 Ru19_6 2.163724 1_455
B15_2 Ru19_7 2.163724 1_455
B15_2 Ru7_3 2.212766 1_555
B15_2 Ru7_2 2.212766 1_555
B15_2 Ru9_3 2.220794 1_555
B15_2 Ru9_2 2.220794 1_555
B15_2 Co0_6 2.524469 1_455
B15_2 Ti1_2 2.859987 1_555
B15_2 Ti13_6 2.943087 1_455
B15_3 Ru19_7 2.163724 1_455
B15_3 Ru19_6 2.163724 1_456
B15_3 Ru7_3 2.212766 1_555
B15_3 Ru7_2 2.212766 1_556
B15_3 Ru9_2 2.220794 1_556
B15_3 Ru9_3 2.220794 1_555
B15_3 Co0_7 2.524469 1_455
B15_3 Ti1_3 2.859987 1_555
B15_3 Ti13_7 2.943087 1_455
B15_4 Ru19_0 2.163724 1_555
B15_4 Ru19_1 2.163724 1_555
B15_4 Ru7_5 2.212766 1_555
B15_4 Ru7_4 2.212766 1_555
B15_4 Ru9_4 2.220794 1_555
B15_4 Ru9_5 2.220794 1_555
B15_4 Co0_0 2.524469 1_555
B15_4 Ti1_4 2.859987 1_555
B15_4 Ti13_0 2.943087 1_555
B15_5 Ru19_1 2.163724 1_555
B15_5 Ru19_0 2.163724 1_556
B15_5 Ru7_5 2.212766 1_555
B15_5 Ru7_4 2.212766 1_556
B15_5 Ru9_4 2.220794 1_556
B15_5 Ru9_5 2.220794 1_555
B15_5 Co0_1 2.524469 1_555
B15_5 Ti1_5 2.859987 1_555
B15_5 Ti13_1 2.943087 1_555
B15_6 Ru19_3 2.163724 1_555
B15_6 Ru19_2 2.163724 1_555
B15_6 Ru7_6 2.212766 1_555
B15_6 Ru7_7 2.212766 1_555
B15_6 Ru9_7 2.220794 1_555
B15_6 Ru9_6 2.220794 1_555
B15_6 Co0_2 2.524469 1_555
B15_6 Ti1_6 2.859987 1_555
B15_6 Ti13_2 2.943087 1_555
B15_7 Ru19_3 2.163724 1_555
B15_7 Ru19_2 2.163724 1_556
B15_7 Ru7_6 2.212766 1_556
B15_7 Ru7_7 2.212766 1_555
B15_7 Ru9_6 2.220794 1_556
B15_7 Ru9_7 2.220794 1_555
B15_7 Co0_3 2.524469 1_555
B15_7 Ti1_7 2.859987 1_555
B15_7 Ti13_3 2.943087 1_555
Ru0_0 Ti0_0 2.669907 1_555
Ru0_0 Ti0_1 2.669907 1_554
Ru0_0 Ti6_0 2.802365 1_555
Ru0_0 Ti6_1 2.802365 1_554
Ru0_1 Ti0_0 2.669907 1_555
Ru0_1 Ti0_1 2.669907 1_555
Ru0_1 Ti6_1 2.802365 1_555
Ru0_1 Ti6_0 2.802365 1_555
Ru0_2 Ti0_3 2.669907 1_554
Ru0_2 Ti0_2 2.669907 1_555
Ru0_2 Ti6_3 2.802365 1_554
Ru0_2 Ti6_2 2.802365 1_555
Ru0_3 Ti0_3 2.669907 1_555
Ru0_3 Ti0_2 2.669907 1_555
Ru0_3 Ti6_3 2.802365 1_555
Ru0_3 Ti6_2 2.802365 1_555
Ru0_4 Ti0_4 2.669907 1_555
Ru0_4 Ti0_5 2.669907 1_554
Ru0_4 Ti6_5 2.802365 1_554
Ru0_4 Ti6_4 2.802365 1_555
Ru0_5 Ti0_4 2.669907 1_555
Ru0_5 Ti0_5 2.669907 1_555
Ru0_5 Ti6_4 2.802365 1_555
Ru0_5 Ti6_5 2.802365 1_555
Ru0_6 Ti0_6 2.669907 1_555
Ru0_6 Ti0_7 2.669907 1_554
Ru0_6 Ti6_6 2.802365 1_555
Ru0_6 Ti6_7 2.802365 1_554
Ru0_7 Ti0_6 2.669907 1_555
Ru0_7 Ti0_7 2.669907 1_555
Ru0_7 Ti6_6 2.802365 1_555
Ru0_7 Ti6_7 2.802365 1_555
Ru1_0 Ti1_0 2.669907 1_555
Ru1_0 Ti1_1 2.669907 1_554
Ru1_0 Ti7_0 2.802365 1_555
Ru1_0 Ti7_1 2.802365 1_554
Ru1_1 Ti1_0 2.669907 1_555
Ru1_1 Ti1_1 2.669907 1_555
Ru1_1 Ti7_0 2.802365 1_555
Ru1_1 Ti7_1 2.802365 1_555
Ru1_2 Ti1_2 2.669907 1_555
Ru1_2 Ti1_3 2.669907 1_554
Ru1_2 Ti7_3 2.802365 1_554
Ru1_2 Ti7_2 2.802365 1_555
Ru1_3 Ti1_3 2.669907 1_555
Ru1_3 Ti1_2 2.669907 1_555
Ru1_3 Ti7_3 2.802365 1_555
Ru1_3 Ti7_2 2.802365 1_555
Ru1_4 Ti1_5 2.669907 1_554
Ru1_4 Ti1_4 2.669907 1_555
Ru1_4 Ti7_5 2.802365 1_554
Ru1_4 Ti7_4 2.802365 1_555
Ru1_5 Ti1_5 2.669907 1_555
Ru1_5 Ti1_4 2.669907 1_555
Ru1_5 Ti7_4 2.802365 1_555
Ru1_5 Ti7_5 2.802365 1_555
Ru1_6 Ti1_7 2.669907 1_554
Ru1_6 Ti1_6 2.669907 1_555
Ru1_6 Ti7_6 2.802365 1_555
Ru1_6 Ti7_7 2.802365 1_554
Ru1_7 Ti1_7 2.669907 1_555
Ru1_7 Ti1_6 2.669907 1_555
Ru1_7 Ti7_6 2.802365 1_555
Ru1_7 Ti7_7 2.802365 1_555
Ru2_0 Ti2_1 2.669907 1_554
Ru2_0 Ti2_0 2.669907 1_555
Ru2_0 Ti8_3 2.802365 1_544
Ru2_0 Ti8_2 2.802365 1_545
Ru2_1 Ti2_0 2.669907 1_555
Ru2_1 Ti2_1 2.669907 1_555
Ru2_1 Ti8_3 2.802365 1_545
Ru2_1 Ti8_2 2.802365 1_545
Ru2_2 Ti2_2 2.669907 1_555
Ru2_2 Ti2_3 2.669907 1_554
Ru2_2 Ti8_1 2.802365 1_554
Ru2_2 Ti8_0 2.802365 1_555
Ru2_3 Ti2_3 2.669907 1_555
Ru2_3 Ti2_2 2.669907 1_555
Ru2_3 Ti8_0 2.802365 1_555
Ru2_3 Ti8_1 2.802365 1_555
Ru2_4 Ti2_4 2.669907 1_555
Ru2_4 Ti2_5 2.669907 1_554
Ru2_4 Ti8_6 2.802365 1_545
Ru2_4 Ti8_7 2.802365 1_544
Ru2_5 Ti2_4 2.669907 1_555
Ru2_5 Ti2_5 2.669907 1_555
Ru2_5 Ti8_6 2.802365 1_545
Ru2_5 Ti8_7 2.802365 1_545
Ru2_6 Ti2_6 2.669907 1_555
Ru2_6 Ti2_7 2.669907 1_554
Ru2_6 Ti8_4 2.802365 1_555
Ru2_6 Ti8_5 2.802365 1_554
Ru2_7 Ti2_6 2.669907 1_555
Ru2_7 Ti2_7 2.669907 1_555
Ru2_7 Ti8_5 2.802365 1_555
Ru2_7 Ti8_4 2.802365 1_555
Ru3_0 Ti3_0 2.669907 1_555
Ru3_0 Ti3_1 2.669907 1_554
Ru3_0 Ti9_3 2.802365 1_554
Ru3_0 Ti9_2 2.802365 1_555
Ru3_1 Ti3_0 2.669907 1_555
Ru3_1 Ti3_1 2.669907 1_555
Ru3_1 Ti9_2 2.802365 1_555
Ru3_1 Ti9_3 2.802365 1_555
Ru3_2 Ti3_3 2.669907 1_554
Ru3_2 Ti3_2 2.669907 1_555
Ru3_2 Ti9_1 2.802365 1_564
Ru3_2 Ti9_0 2.802365 1_565
Ru3_3 Ti3_3 2.669907 1_555
Ru3_3 Ti3_2 2.669907 1_555
Ru3_3 Ti9_1 2.802365 1_565
Ru3_3 Ti9_0 2.802365 1_565
Ru3_4 Ti3_5 2.669907 1_554
Ru3_4 Ti3_4 2.669907 1_555
Ru3_4 Ti9_7 2.802365 1_554
Ru3_4 Ti9_6 2.802365 1_555
Ru3_5 Ti3_4 2.669907 1_555
Ru3_5 Ti3_5 2.669907 1_555
Ru3_5 Ti9_6 2.802365 1_555
Ru3_5 Ti9_7 2.802365 1_555
Ru3_6 Ti3_7 2.669907 1_554
Ru3_6 Ti3_6 2.669907 1_555
Ru3_6 Ti9_5 2.802365 1_564
Ru3_6 Ti9_4 2.802365 1_565
Ru3_7 Ti3_6 2.669907 1_555
Ru3_7 Ti3_7 2.669907 1_555
Ru3_7 Ti9_4 2.802365 1_565
Ru3_7 Ti9_5 2.802365 1_565
Ru4_0 Ti3_0 2.669907 1_555
Ru4_0 Ti3_1 2.669907 1_554
Ru4_0 Ti10_1 2.802365 1_554
Ru4_0 Ti10_0 2.802365 1_555
Ru4_1 Ti3_0 2.669907 1_555
Ru4_1 Ti3_1 2.669907 1_555
Ru4_1 Ti10_0 2.802365 1_555
Ru4_1 Ti10_1 2.802365 1_555
Ru4_2 Ti3_2 2.669907 1_555
Ru4_2 Ti3_3 2.669907 1_554
Ru4_2 Ti10_2 2.802365 1_555
Ru4_2 Ti10_3 2.802365 1_554
Ru4_3 Ti3_2 2.669907 1_555
Ru4_3 Ti3_3 2.669907 1_555
Ru4_3 Ti10_2 2.802365 1_555
Ru4_3 Ti10_3 2.802365 1_555
Ru4_4 Ti3_5 2.669907 1_554
Ru4_4 Ti3_4 2.669907 1_555
Ru4_4 Ti10_5 2.802365 1_554
Ru4_4 Ti10_4 2.802365 1_555
Ru4_5 Ti3_4 2.669907 1_555
Ru4_5 Ti3_5 2.669907 1_555
Ru4_5 Ti10_5 2.802365 1_555
Ru4_5 Ti10_4 2.802365 1_555
Ru4_6 Ti3_6 2.669907 1_555
Ru4_6 Ti3_7 2.669907 1_554
Ru4_6 Ti10_6 2.802365 1_555
Ru4_6 Ti10_7 2.802365 1_554
Ru4_7 Ti3_7 2.669907 1_555
Ru4_7 Ti3_6 2.669907 1_555
Ru4_7 Ti10_6 2.802365 1_555
Ru4_7 Ti10_7 2.802365 1_555
Ru5_0 Ti2_0 2.669907 1_555
Ru5_0 Ti2_1 2.669907 1_554
Ru5_0 Ti11_0 2.802365 1_555
Ru5_0 Ti11_1 2.802365 1_554
Ru5_1 Ti2_1 2.669907 1_555
Ru5_1 Ti2_0 2.669907 1_555
Ru5_1 Ti11_0 2.802365 1_555
Ru5_1 Ti11_1 2.802365 1_555
Ru5_2 Ti2_2 2.669907 1_555
Ru5_2 Ti2_3 2.669907 1_554
Ru5_2 Ti11_3 2.802365 1_554
Ru5_2 Ti11_2 2.802365 1_555
Ru5_3 Ti2_3 2.669907 1_555
Ru5_3 Ti2_2 2.669907 1_555
Ru5_3 Ti11_2 2.802365 1_555
Ru5_3 Ti11_3 2.802365 1_555
Ru5_4 Ti2_5 2.669907 1_554
Ru5_4 Ti2_4 2.669907 1_555
Ru5_4 Ti11_4 2.802365 1_555
Ru5_4 Ti11_5 2.802365 1_554
Ru5_5 Ti2_5 2.669907 1_555
Ru5_5 Ti2_4 2.669907 1_555
Ru5_5 Ti11_5 2.802365 1_555
Ru5_5 Ti11_4 2.802365 1_555
Ru5_6 Ti2_7 2.669907 1_554
Ru5_6 Ti2_6 2.669907 1_555
Ru5_6 Ti11_7 2.802365 1_554
Ru5_6 Ti11_6 2.802365 1_555
Ru5_7 Ti2_7 2.669907 1_555
Ru5_7 Ti2_6 2.669907 1_555
Ru5_7 Ti11_7 2.802365 1_555
Ru5_7 Ti11_6 2.802365 1_555
Ru6_0 Ti0_1 2.669907 1_554
Ru6_0 Ti0_0 2.669907 1_555
Ru6_0 Ti12_5 2.802365 1_554
Ru6_0 Ti12_4 2.802365 1_555
Ru6_1 Ti0_0 2.669907 1_555
Ru6_1 Ti0_1 2.669907 1_555
Ru6_1 Ti12_4 2.802365 1_555
Ru6_1 Ti12_5 2.802365 1_555
Ru6_2 Ti0_3 2.669907 1_554
Ru6_2 Ti0_2 2.669907 1_555
Ru6_2 Ti12_6 2.802365 1_555
Ru6_2 Ti12_7 2.802365 1_554
Ru6_3 Ti0_3 2.669907 1_555
Ru6_3 Ti0_2 2.669907 1_555
Ru6_3 Ti12_7 2.802365 1_555
Ru6_3 Ti12_6 2.802365 1_555
Ru6_4 Ti0_4 2.669907 1_555
Ru6_4 Ti0_5 2.669907 1_554
Ru6_4 Ti12_1 2.802365 1_654
Ru6_4 Ti12_0 2.802365 1_655
Ru6_5 Ti0_5 2.669907 1_555
Ru6_5 Ti0_4 2.669907 1_555
Ru6_5 Ti12_1 2.802365 1_655
Ru6_5 Ti12_0 2.802365 1_655
Ru6_6 Ti0_6 2.669907 1_555
Ru6_6 Ti0_7 2.669907 1_554
Ru6_6 Ti12_2 2.802365 1_655
Ru6_6 Ti12_3 2.802365 1_654
Ru6_7 Ti0_6 2.669907 1_555
Ru6_7 Ti0_7 2.669907 1_555
Ru6_7 Ti12_3 2.802365 1_655
Ru6_7 Ti12_2 2.802365 1_655
Ru7_0 Ti1_0 2.669907 1_555
Ru7_0 Ti1_1 2.669907 1_554
Ru7_0 Ti13_5 2.802365 1_454
Ru7_0 Ti13_4 2.802365 1_455
Ru7_1 Ti1_1 2.669907 1_555
Ru7_1 Ti1_0 2.669907 1_555
Ru7_1 Ti13_5 2.802365 1_455
Ru7_1 Ti13_4 2.802365 1_455
Ru7_2 Ti1_3 2.669907 1_554
Ru7_2 Ti1_2 2.669907 1_555
Ru7_2 Ti13_7 2.802365 1_454
Ru7_2 Ti13_6 2.802365 1_455
Ru7_3 Ti1_3 2.669907 1_555
Ru7_3 Ti1_2 2.669907 1_555
Ru7_3 Ti13_6 2.802365 1_455
Ru7_3 Ti13_7 2.802365 1_455
Ru7_4 Ti1_5 2.669907 1_554
Ru7_4 Ti1_4 2.669907 1_555
Ru7_4 Ti13_0 2.802365 1_555
Ru7_4 Ti13_1 2.802365 1_554
Ru7_5 Ti1_5 2.669907 1_555
Ru7_5 Ti1_4 2.669907 1_555
Ru7_5 Ti13_0 2.802365 1_555
Ru7_5 Ti13_1 2.802365 1_555
Ru7_6 Ti1_6 2.669907 1_555
Ru7_6 Ti1_7 2.669907 1_554
Ru7_6 Ti13_3 2.802365 1_554
Ru7_6 Ti13_2 2.802365 1_555
Ru7_7 Ti1_6 2.669907 1_555
Ru7_7 Ti1_7 2.669907 1_555
Ru7_7 Ti13_2 2.802365 1_555
Ru7_7 Ti13_3 2.802365 1_555
Ru12_0 Ti14_0 2.598569 1_555
Ru12_0 Ti14_1 2.598569 1_554
Ru12_0 Ti6_1 2.994926 1_554
Ru12_0 Ti6_0 2.994926 1_555
Ru12_1 Ti14_0 2.598569 1_555
Ru12_1 Ti14_1 2.598569 1_555
Ru12_1 Ti6_1 2.994926 1_555
Ru12_1 Ti6_0 2.994926 1_555
Ru12_2 Ti14_3 2.598569 1_554
Ru12_2 Ti14_2 2.598569 1_555
Ru12_2 Ti6_2 2.994926 1_555
Ru12_2 Ti6_3 2.994926 1_554
Ru12_3 Ti14_3 2.598569 1_555
Ru12_3 Ti14_2 2.598569 1_555
Ru12_3 Ti6_2 2.994926 1_555
Ru12_3 Ti6_3 2.994926 1_555
Ru12_4 Ti14_5 2.598569 1_554
Ru12_4 Ti14_4 2.598569 1_555
Ru12_4 Ti6_5 2.994926 1_554
Ru12_4 Ti6_4 2.994926 1_555
Ru12_5 Ti14_4 2.598569 1_555
Ru12_5 Ti14_5 2.598569 1_555
Ru12_5 Ti6_4 2.994926 1_555
Ru12_5 Ti6_5 2.994926 1_555
Ru12_6 Ti14_6 2.598569 1_555
Ru12_6 Ti14_7 2.598569 1_554
Ru12_6 Ti6_7 2.994926 1_554
Ru12_6 Ti6_6 2.994926 1_555
Ru12_7 Ti14_7 2.598569 1_555
Ru12_7 Ti14_6 2.598569 1_555
Ru12_7 Ti6_7 2.994926 1_555
Ru12_7 Ti6_6 2.994926 1_555
Ru13_0 Ti15_0 2.598569 1_555
Ru13_0 Ti15_1 2.598569 1_554
Ru13_0 Ti7_1 2.994926 1_554
Ru13_0 Ti7_0 2.994926 1_555
Ru13_1 Ti15_0 2.598569 1_555
Ru13_1 Ti15_1 2.598569 1_555
Ru13_1 Ti7_0 2.994926 1_555
Ru13_1 Ti7_1 2.994926 1_555
Ru13_2 Ti15_2 2.598569 1_555
Ru13_2 Ti15_3 2.598569 1_554
Ru13_2 Ti7_2 2.994926 1_555
Ru13_2 Ti7_3 2.994926 1_554
Ru13_3 Ti15_3 2.598569 1_555
Ru13_3 Ti15_2 2.598569 1_555
Ru13_3 Ti7_2 2.994926 1_555
Ru13_3 Ti7_3 2.994926 1_555
Ru13_4 Ti15_4 2.598569 1_555
Ru13_4 Ti15_5 2.598569 1_554
Ru13_4 Ti7_5 2.994926 1_554
Ru13_4 Ti7_4 2.994926 1_555
Ru13_5 Ti15_4 2.598569 1_555
Ru13_5 Ti15_5 2.598569 1_555
Ru13_5 Ti7_4 2.994926 1_555
Ru13_5 Ti7_5 2.994926 1_555
Ru13_6 Ti15_6 2.598569 1_555
Ru13_6 Ti15_7 2.598569 1_554
Ru13_6 Ti7_6 2.994926 1_555
Ru13_6 Ti7_7 2.994926 1_554
Ru13_7 Ti15_6 2.598569 1_555
Ru13_7 Ti15_7 2.598569 1_555
Ru13_7 Ti7_6 2.994926 1_555
Ru13_7 Ti7_7 2.994926 1_555
Ru14_0 Ti16_1 2.598569 1_554
Ru14_0 Ti16_0 2.598569 1_555
Ru14_0 Ti8_1 2.994926 1_554
Ru14_0 Ti8_0 2.994926 1_555
Ru14_1 Ti16_0 2.598569 1_555
Ru14_1 Ti16_1 2.598569 1_555
Ru14_1 Ti8_1 2.994926 1_555
Ru14_1 Ti8_0 2.994926 1_555
Ru14_2 Ti16_3 2.598569 1_554
Ru14_2 Ti16_2 2.598569 1_555
Ru14_2 Ti8_3 2.994926 1_554
Ru14_2 Ti8_2 2.994926 1_555
Ru14_3 Ti16_3 2.598569 1_555
Ru14_3 Ti16_2 2.598569 1_555
Ru14_3 Ti8_3 2.994926 1_555
Ru14_3 Ti8_2 2.994926 1_555
Ru14_4 Ti16_4 2.598569 1_555
Ru14_4 Ti16_5 2.598569 1_554
Ru14_4 Ti8_4 2.994926 1_555
Ru14_4 Ti8_5 2.994926 1_554
Ru14_5 Ti16_5 2.598569 1_555
Ru14_5 Ti16_4 2.598569 1_555
Ru14_5 Ti8_4 2.994926 1_555
Ru14_5 Ti8_5 2.994926 1_555
Ru14_6 Ti16_6 2.598569 1_555
Ru14_6 Ti16_7 2.598569 1_554
Ru14_6 Ti8_6 2.994926 1_555
Ru14_6 Ti8_7 2.994926 1_554
Ru14_7 Ti16_6 2.598569 1_555
Ru14_7 Ti16_7 2.598569 1_555
Ru14_7 Ti8_6 2.994926 1_555
Ru14_7 Ti8_7 2.994926 1_555
Ru15_0 Ti17_1 2.598569 1_554
Ru15_0 Ti17_0 2.598569 1_555
Ru15_0 Ti9_0 2.994926 1_555
Ru15_0 Ti9_1 2.994926 1_554
Ru15_1 Ti17_1 2.598569 1_555
Ru15_1 Ti17_0 2.598569 1_555
Ru15_1 Ti9_1 2.994926 1_555
Ru15_1 Ti9_0 2.994926 1_555
Ru15_2 Ti17_3 2.598569 1_554
Ru15_2 Ti17_2 2.598569 1_555
Ru15_2 Ti9_2 2.994926 1_555
Ru15_2 Ti9_3 2.994926 1_554
Ru15_3 Ti17_3 2.598569 1_555
Ru15_3 Ti17_2 2.598569 1_555
Ru15_3 Ti9_3 2.994926 1_555
Ru15_3 Ti9_2 2.994926 1_555
Ru15_4 Ti17_5 2.598569 1_554
Ru15_4 Ti17_4 2.598569 1_555
Ru15_4 Ti9_4 2.994926 1_555
Ru15_4 Ti9_5 2.994926 1_554
Ru15_5 Ti17_4 2.598569 1_555
Ru15_5 Ti17_5 2.598569 1_555
Ru15_5 Ti9_5 2.994926 1_555
Ru15_5 Ti9_4 2.994926 1_555
Ru15_6 Ti17_6 2.598569 1_555
Ru15_6 Ti17_7 2.598569 1_554
Ru15_6 Ti9_6 2.994926 1_555
Ru15_6 Ti9_7 2.994926 1_554
Ru15_7 Ti17_6 2.598569 1_555
Ru15_7 Ti17_7 2.598569 1_555
Ru15_7 Ti9_6 2.994926 1_555
Ru15_7 Ti9_7 2.994926 1_555
Ru16_0 Ti16_0 2.598569 1_555
Ru16_0 Ti16_1 2.598569 1_554
Ru16_0 Ti10_1 2.994926 1_554
Ru16_0 Ti10_0 2.994926 1_555
Ru16_1 Ti16_0 2.598569 1_555
Ru16_1 Ti16_1 2.598569 1_555
Ru16_1 Ti10_1 2.994926 1_555
Ru16_1 Ti10_0 2.994926 1_555
Ru16_2 Ti16_2 2.598569 1_555
Ru16_2 Ti16_3 2.598569 1_554
Ru16_2 Ti10_3 2.994926 1_554
Ru16_2 Ti10_2 2.994926 1_555
Ru16_3 Ti16_3 2.598569 1_555
Ru16_3 Ti16_2 2.598569 1_555
Ru16_3 Ti10_3 2.994926 1_555
Ru16_3 Ti10_2 2.994926 1_555
Ru16_4 Ti16_4 2.598569 1_555
Ru16_4 Ti16_5 2.598569 1_554
Ru16_4 Ti10_4 2.994926 1_555
Ru16_4 Ti10_5 2.994926 1_554
Ru16_5 Ti16_5 2.598569 1_555
Ru16_5 Ti16_4 2.598569 1_555
Ru16_5 Ti10_5 2.994926 1_555
Ru16_5 Ti10_4 2.994926 1_555
Ru16_6 Ti16_7 2.598569 1_554
Ru16_6 Ti16_6 2.598569 1_555
Ru16_6 Ti10_6 2.994926 1_555
Ru16_6 Ti10_7 2.994926 1_554
Ru16_7 Ti16_7 2.598569 1_555
Ru16_7 Ti16_6 2.598569 1_555
Ru16_7 Ti10_6 2.994926 1_555
Ru16_7 Ti10_7 2.994926 1_555
Ru17_0 Ti17_0 2.598569 1_555
Ru17_0 Ti17_1 2.598569 1_554
Ru17_0 Ti11_0 2.994926 1_555
Ru17_0 Ti11_1 2.994926 1_554
Ru17_1 Ti17_0 2.598569 1_555
Ru17_1 Ti17_1 2.598569 1_555
Ru17_1 Ti11_0 2.994926 1_555
Ru17_1 Ti11_1 2.994926 1_555
Ru17_2 Ti17_3 2.598569 1_554
Ru17_2 Ti17_2 2.598569 1_555
Ru17_2 Ti11_3 2.994926 1_554
Ru17_2 Ti11_2 2.994926 1_555
Ru17_3 Ti17_3 2.598569 1_555
Ru17_3 Ti17_2 2.598569 1_555
Ru17_3 Ti11_3 2.994926 1_555
Ru17_3 Ti11_2 2.994926 1_555
Ru17_4 Ti17_5 2.598569 1_554
Ru17_4 Ti17_4 2.598569 1_555
Ru17_4 Ti11_5 2.994926 1_554
Ru17_4 Ti11_4 2.994926 1_555
Ru17_5 Ti17_5 2.598569 1_555
Ru17_5 Ti17_4 2.598569 1_555
Ru17_5 Ti11_5 2.994926 1_555
Ru17_5 Ti11_4 2.994926 1_555
Ru17_6 Ti17_6 2.598569 1_555
Ru17_6 Ti17_7 2.598569 1_554
Ru17_6 Ti11_6 2.994926 1_555
Ru17_6 Ti11_7 2.994926 1_554
Ru17_7 Ti17_6 2.598569 1_555
Ru17_7 Ti17_7 2.598569 1_555
Ru17_7 Ti11_7 2.994926 1_555
Ru17_7 Ti11_6 2.994926 1_555
Ru18_0 Ti15_1 2.598569 1_554
Ru18_0 Ti15_0 2.598569 1_555
Ru18_0 Ti12_1 2.994926 1_554
Ru18_0 Ti12_0 2.994926 1_555
Ru18_1 Ti15_1 2.598569 1_555
Ru18_1 Ti15_0 2.598569 1_555
Ru18_1 Ti12_1 2.994926 1_555
Ru18_1 Ti12_0 2.994926 1_555
Ru18_2 Ti15_2 2.598569 1_555
Ru18_2 Ti15_3 2.598569 1_554
Ru18_2 Ti12_3 2.994926 1_554
Ru18_2 Ti12_2 2.994926 1_555
Ru18_3 Ti15_3 2.598569 1_555
Ru18_3 Ti15_2 2.598569 1_555
Ru18_3 Ti12_2 2.994926 1_555
Ru18_3 Ti12_3 2.994926 1_555
Ru18_4 Ti15_5 2.598569 1_554
Ru18_4 Ti15_4 2.598569 1_555
Ru18_4 Ti12_5 2.994926 1_554
Ru18_4 Ti12_4 2.994926 1_555
Ru18_5 Ti15_5 2.598569 1_555
Ru18_5 Ti15_4 2.598569 1_555
Ru18_5 Ti12_5 2.994926 1_555
Ru18_5 Ti12_4 2.994926 1_555
Ru18_6 Ti15_6 2.598569 1_555
Ru18_6 Ti15_7 2.598569 1_554
Ru18_6 Ti12_6 2.994926 1_555
Ru18_6 Ti12_7 2.994926 1_554
Ru18_7 Ti15_6 2.598569 1_555
Ru18_7 Ti15_7 2.598569 1_555
Ru18_7 Ti12_6 2.994926 1_555
Ru18_7 Ti12_7 2.994926 1_555
Ru19_0 Ti14_1 2.598569 1_554
Ru19_0 Ti14_0 2.598569 1_555
Ru19_0 Ti13_1 2.994926 1_554
Ru19_0 Ti13_0 2.994926 1_555
Ru19_1 Ti14_1 2.598569 1_555
Ru19_1 Ti14_0 2.598569 1_555
Ru19_1 Ti13_0 2.994926 1_555
Ru19_1 Ti13_1 2.994926 1_555
Ru19_2 Ti14_3 2.598569 1_554
Ru19_2 Ti14_2 2.598569 1_555
Ru19_2 Ti13_2 2.994926 1_555
Ru19_2 Ti13_3 2.994926 1_554
Ru19_3 Ti14_2 2.598569 1_555
Ru19_3 Ti14_3 2.598569 1_555
Ru19_3 Ti13_2 2.994926 1_555
Ru19_3 Ti13_3 2.994926 1_555
Ru19_4 Ti14_5 2.598569 1_554
Ru19_4 Ti14_4 2.598569 1_555
Ru19_4 Ti13_5 2.994926 1_554
Ru19_4 Ti13_4 2.994926 1_555
Ru19_5 Ti14_4 2.598569 1_555
Ru19_5 Ti14_5 2.598569 1_555
Ru19_5 Ti13_4 2.994926 1_555
Ru19_5 Ti13_5 2.994926 1_555
Ru19_6 Ti14_6 2.598569 1_555
Ru19_6 Ti14_7 2.598569 1_554
Ru19_6 Ti13_6 2.994926 1_555
Ru19_6 Ti13_7 2.994926 1_554
Ru19_7 Ti14_7 2.598569 1_555
Ru19_7 Ti14_6 2.598569 1_555
Ru19_7 Ti13_6 2.994926 1_555
Ru19_7 Ti13_7 2.994926 1_555
Ru20_0 Ti17_0 2.547279 1_555
Ru20_0 Ti17_1 2.547279 1_554
Ru20_0 Ti11_1 2.814587 1_554
Ru20_0 Ti11_0 2.814587 1_555
Ru20_0 Ti0_1 2.832675 1_554
Ru20_0 Ti0_0 2.832675 1_555
Ru20_1 Ti17_0 2.547279 1_555
Ru20_1 Ti17_1 2.547279 1_555
Ru20_1 Ti11_1 2.814587 1_555
Ru20_1 Ti11_0 2.814587 1_555
Ru20_1 Ti0_1 2.832675 1_555
Ru20_1 Ti0_0 2.832675 1_555
Ru20_2 Ti17_3 2.547279 1_554
Ru20_2 Ti17_2 2.547279 1_555
Ru20_2 Ti11_2 2.814587 1_555
Ru20_2 Ti11_3 2.814587 1_554
Ru20_2 Ti0_3 2.832675 1_554
Ru20_2 Ti0_2 2.832675 1_555
Ru20_3 Ti17_2 2.547279 1_555
Ru20_3 Ti17_3 2.547279 1_555
Ru20_3 Ti11_2 2.814587 1_555
Ru20_3 Ti11_3 2.814587 1_555
Ru20_3 Ti0_3 2.832675 1_555
Ru20_3 Ti0_2 2.832675 1_555
Ru20_4 Ti17_5 2.547279 1_554
Ru20_4 Ti17_4 2.547279 1_555
Ru20_4 Ti11_4 2.814587 1_555
Ru20_4 Ti11_5 2.814587 1_554
Ru20_4 Ti0_4 2.832675 1_555
Ru20_4 Ti0_5 2.832675 1_554
Ru20_5 Ti17_5 2.547279 1_555
Ru20_5 Ti17_4 2.547279 1_555
Ru20_5 Ti11_4 2.814587 1_555
Ru20_5 Ti11_5 2.814587 1_555
Ru20_5 Ti0_4 2.832675 1_555
Ru20_5 Ti0_5 2.832675 1_555
Ru20_6 Ti17_7 2.547279 1_554
Ru20_6 Ti17_6 2.547279 1_555
Ru20_6 Ti11_7 2.814587 1_554
Ru20_6 Ti11_6 2.814587 1_555
Ru20_6 Ti0_7 2.832675 1_554
Ru20_6 Ti0_6 2.832675 1_555
Ru20_7 Ti17_7 2.547279 1_555
Ru20_7 Ti17_6 2.547279 1_555
Ru20_7 Ti11_7 2.814587 1_555
Ru20_7 Ti11_6 2.814587 1_555
Ru20_7 Ti0_7 2.832675 1_555
Ru20_7 Ti0_6 2.832675 1_555
Ru21_0 Ti16_0 2.547279 1_555
Ru21_0 Ti16_1 2.547279 1_554
Ru21_0 Ti10_1 2.814587 1_554
Ru21_0 Ti10_0 2.814587 1_555
Ru21_0 Ti1_0 2.832675 1_555
Ru21_0 Ti1_1 2.832675 1_554
Ru21_1 Ti16_0 2.547279 1_555
Ru21_1 Ti16_1 2.547279 1_555
Ru21_1 Ti10_0 2.814587 1_555
Ru21_1 Ti10_1 2.814587 1_555
Ru21_1 Ti1_0 2.832675 1_555
Ru21_1 Ti1_1 2.832675 1_555
Ru21_2 Ti16_2 2.547279 1_555
Ru21_2 Ti16_3 2.547279 1_554
Ru21_2 Ti10_3 2.814587 1_554
Ru21_2 Ti10_2 2.814587 1_555
Ru21_2 Ti1_3 2.832675 1_554
Ru21_2 Ti1_2 2.832675 1_555
Ru21_3 Ti16_3 2.547279 1_555
Ru21_3 Ti16_2 2.547279 1_555
Ru21_3 Ti10_2 2.814587 1_555
Ru21_3 Ti10_3 2.814587 1_555
Ru21_3 Ti1_3 2.832675 1_555
Ru21_3 Ti1_2 2.832675 1_555
Ru21_4 Ti16_5 2.547279 1_554
Ru21_4 Ti16_4 2.547279 1_555
Ru21_4 Ti10_5 2.814587 1_554
Ru21_4 Ti10_4 2.814587 1_555
Ru21_4 Ti1_4 2.832675 1_555
Ru21_4 Ti1_5 2.832675 1_554
Ru21_5 Ti16_5 2.547279 1_555
Ru21_5 Ti16_4 2.547279 1_555
Ru21_5 Ti10_5 2.814587 1_555
Ru21_5 Ti10_4 2.814587 1_555
Ru21_5 Ti1_4 2.832675 1_555
Ru21_5 Ti1_5 2.832675 1_555
Ru21_6 Ti16_7 2.547279 1_554
Ru21_6 Ti16_6 2.547279 1_555
Ru21_6 Ti10_7 2.814587 1_554
Ru21_6 Ti10_6 2.814587 1_555
Ru21_6 Ti1_7 2.832675 1_554
Ru21_6 Ti1_6 2.832675 1_555
Ru21_7 Ti16_7 2.547279 1_555
Ru21_7 Ti16_6 2.547279 1_555
Ru21_7 Ti10_7 2.814587 1_555
Ru21_7 Ti10_6 2.814587 1_555
Ru21_7 Ti1_6 2.832675 1_555
Ru21_7 Ti1_7 2.832675 1_555
Ru22_0 Ti15_0 2.547279 1_555
Ru22_0 Ti15_1 2.547279 1_554
Ru22_0 Ti12_0 2.814587 1_555
Ru22_0 Ti12_1 2.814587 1_554
Ru22_0 Ti2_1 2.832675 1_554
Ru22_0 Ti2_0 2.832675 1_555
Ru22_1 Ti15_0 2.547279 1_555
Ru22_1 Ti15_1 2.547279 1_555
Ru22_1 Ti12_0 2.814587 1_555
Ru22_1 Ti12_1 2.814587 1_555
Ru22_1 Ti2_0 2.832675 1_555
Ru22_1 Ti2_1 2.832675 1_555
Ru22_2 Ti15_2 2.547279 1_555
Ru22_2 Ti15_3 2.547279 1_554
Ru22_2 Ti12_3 2.814587 1_554
Ru22_2 Ti12_2 2.814587 1_555
Ru22_2 Ti2_2 2.832675 1_555
Ru22_2 Ti2_3 2.832675 1_554
Ru22_3 Ti15_3 2.547279 1_555
Ru22_3 Ti15_2 2.547279 1_555
Ru22_3 Ti12_3 2.814587 1_555
Ru22_3 Ti12_2 2.814587 1_555
Ru22_3 Ti2_2 2.832675 1_555
Ru22_3 Ti2_3 2.832675 1_555
Ru22_4 Ti15_4 2.547279 1_555
Ru22_4 Ti15_5 2.547279 1_554
Ru22_4 Ti12_4 2.814587 1_555
Ru22_4 Ti12_5 2.814587 1_554
Ru22_4 Ti2_4 2.832675 1_555
Ru22_4 Ti2_5 2.832675 1_554
Ru22_5 Ti15_5 2.547279 1_555
Ru22_5 Ti15_4 2.547279 1_555
Ru22_5 Ti12_4 2.814587 1_555
Ru22_5 Ti12_5 2.814587 1_555
Ru22_5 Ti2_4 2.832675 1_555
Ru22_5 Ti2_5 2.832675 1_555
Ru22_6 Ti15_6 2.547279 1_555
Ru22_6 Ti15_7 2.547279 1_554
Ru22_6 Ti12_7 2.814587 1_554
Ru22_6 Ti12_6 2.814587 1_555
Ru22_6 Ti2_7 2.832675 1_554
Ru22_6 Ti2_6 2.832675 1_555
Ru22_7 Ti15_6 2.547279 1_555
Ru22_7 Ti15_7 2.547279 1_555
Ru22_7 Ti12_7 2.814587 1_555
Ru22_7 Ti12_6 2.814587 1_555
Ru22_7 Ti2_7 2.832675 1_555
Ru22_7 Ti2_6 2.832675 1_555
Ru23_0 Ti14_1 2.547279 1_554
Ru23_0 Ti14_0 2.547279 1_555
Ru23_0 Ti13_1 2.814587 1_554
Ru23_0 Ti13_0 2.814587 1_555
Ru23_0 Ti3_1 2.832675 1_554
Ru23_0 Ti3_0 2.832675 1_555
Ru23_1 Ti14_1 2.547279 1_555
Ru23_1 Ti14_0 2.547279 1_555
Ru23_1 Ti13_0 2.814587 1_555
Ru23_1 Ti13_1 2.814587 1_555
Ru23_1 Ti3_1 2.832675 1_555
Ru23_1 Ti3_0 2.832675 1_555
Ru23_2 Ti14_2 2.547279 1_555
Ru23_2 Ti14_3 2.547279 1_554
Ru23_2 Ti13_3 2.814587 1_554
Ru23_2 Ti13_2 2.814587 1_555
Ru23_2 Ti3_3 2.832675 1_554
Ru23_2 Ti3_2 2.832675 1_555
Ru23_3 Ti14_2 2.547279 1_555
Ru23_3 Ti14_3 2.547279 1_555
Ru23_3 Ti13_2 2.814587 1_555
Ru23_3 Ti13_3 2.814587 1_555
Ru23_3 Ti3_2 2.832675 1_555
Ru23_3 Ti3_3 2.832675 1_555
Ru23_4 Ti14_4 2.547279 1_555
Ru23_4 Ti14_5 2.547279 1_554
Ru23_4 Ti13_4 2.814587 1_555
Ru23_4 Ti13_5 2.814587 1_554
Ru23_4 Ti3_5 2.832675 1_554
Ru23_4 Ti3_4 2.832675 1_555
Ru23_5 Ti14_4 2.547279 1_555
Ru23_5 Ti14_5 2.547279 1_555
Ru23_5 Ti13_4 2.814587 1_555
Ru23_5 Ti13_5 2.814587 1_555
Ru23_5 Ti3_4 2.832675 1_555
Ru23_5 Ti3_5 2.832675 1_555
Ru23_6 Ti14_6 2.547279 1_555
Ru23_6 Ti14_7 2.547279 1_554
Ru23_6 Ti13_7 2.814587 1_554
Ru23_6 Ti13_6 2.814587 1_555
Ru23_6 Ti3_7 2.832675 1_554
Ru23_6 Ti3_6 2.832675 1_555
Ru23_7 Ti14_7 2.547279 1_555
Ru23_7 Ti14_6 2.547279 1_555
Ru23_7 Ti13_7 2.814587 1_555
Ru23_7 Ti13_6 2.814587 1_555
Ru23_7 Ti3_6 2.832675 1_555
Ru23_7 Ti3_7 2.832675 1_555
Ru24_0 Ti14_1 2.547279 1_554
Ru24_0 Ti14_0 2.547279 1_555
Ru24_0 Ti6_0 2.814587 1_555
Ru24_0 Ti6_1 2.814587 1_554
Ru24_0 Ti3_1 2.832675 1_554
Ru24_0 Ti3_0 2.832675 1_555
Ru24_1 Ti14_1 2.547279 1_555
Ru24_1 Ti14_0 2.547279 1_555
Ru24_1 Ti6_0 2.814587 1_555
Ru24_1 Ti6_1 2.814587 1_555
Ru24_1 Ti3_0 2.832675 1_555
Ru24_1 Ti3_1 2.832675 1_555
Ru24_2 Ti14_2 2.547279 1_555
Ru24_2 Ti14_3 2.547279 1_554
Ru24_2 Ti6_3 2.814587 1_554
Ru24_2 Ti6_2 2.814587 1_555
Ru24_2 Ti3_3 2.832675 1_554
Ru24_2 Ti3_2 2.832675 1_555
Ru24_3 Ti14_2 2.547279 1_555
Ru24_3 Ti14_3 2.547279 1_555
Ru24_3 Ti6_3 2.814587 1_555
Ru24_3 Ti6_2 2.814587 1_555
Ru24_3 Ti3_2 2.832675 1_555
Ru24_3 Ti3_3 2.832675 1_555
Ru24_4 Ti14_5 2.547279 1_554
Ru24_4 Ti14_4 2.547279 1_555
Ru24_4 Ti6_5 2.814587 1_554
Ru24_4 Ti6_4 2.814587 1_555
Ru24_4 Ti3_5 2.832675 1_554
Ru24_4 Ti3_4 2.832675 1_555
Ru24_5 Ti14_5 2.547279 1_555
Ru24_5 Ti14_4 2.547279 1_555
Ru24_5 Ti6_4 2.814587 1_555
Ru24_5 Ti6_5 2.814587 1_555
Ru24_5 Ti3_5 2.832675 1_555
Ru24_5 Ti3_4 2.832675 1_555
Ru24_6 Ti14_6 2.547279 1_555
Ru24_6 Ti14_7 2.547279 1_554
Ru24_6 Ti6_7 2.814587 1_554
Ru24_6 Ti6_6 2.814587 1_555
Ru24_6 Ti3_6 2.832675 1_555
Ru24_6 Ti3_7 2.832675 1_554
Ru24_7 Ti14_7 2.547279 1_555
Ru24_7 Ti14_6 2.547279 1_555
Ru24_7 Ti6_6 2.814587 1_555
Ru24_7 Ti6_7 2.814587 1_555
Ru24_7 Ti3_6 2.832675 1_555
Ru24_7 Ti3_7 2.832675 1_555
Ru25_0 Ti15_1 2.547279 1_554
Ru25_0 Ti15_0 2.547279 1_555
Ru25_0 Ti7_0 2.814587 1_555
Ru25_0 Ti7_1 2.814587 1_554
Ru25_0 Ti2_1 2.832675 1_554
Ru25_0 Ti2_0 2.832675 1_555
Ru25_1 Ti15_1 2.547279 1_555
Ru25_1 Ti15_0 2.547279 1_555
Ru25_1 Ti7_0 2.814587 1_555
Ru25_1 Ti7_1 2.814587 1_555
Ru25_1 Ti2_0 2.832675 1_555
Ru25_1 Ti2_1 2.832675 1_555
Ru25_2 Ti15_2 2.547279 1_555
Ru25_2 Ti15_3 2.547279 1_554
Ru25_2 Ti7_3 2.814587 1_554
Ru25_2 Ti7_2 2.814587 1_555
Ru25_2 Ti2_2 2.832675 1_555
Ru25_2 Ti2_3 2.832675 1_554
Ru25_3 Ti15_2 2.547279 1_555
Ru25_3 Ti15_3 2.547279 1_555
Ru25_3 Ti7_2 2.814587 1_555
Ru25_3 Ti7_3 2.814587 1_555
Ru25_3 Ti2_2 2.832675 1_555
Ru25_3 Ti2_3 2.832675 1_555
Ru25_4 Ti15_5 2.547279 1_554
Ru25_4 Ti15_4 2.547279 1_555
Ru25_4 Ti7_5 2.814587 1_554
Ru25_4 Ti7_4 2.814587 1_555
Ru25_4 Ti2_4 2.832675 1_555
Ru25_4 Ti2_5 2.832675 1_554
Ru25_5 Ti15_5 2.547279 1_555
Ru25_5 Ti15_4 2.547279 1_555
Ru25_5 Ti7_5 2.814587 1_555
Ru25_5 Ti7_4 2.814587 1_555
Ru25_5 Ti2_4 2.832675 1_555
Ru25_5 Ti2_5 2.832675 1_555
Ru25_6 Ti15_6 2.547279 1_555
Ru25_6 Ti15_7 2.547279 1_554
Ru25_6 Ti7_7 2.814587 1_554
Ru25_6 Ti7_6 2.814587 1_555
Ru25_6 Ti2_6 2.832675 1_555
Ru25_6 Ti2_7 2.832675 1_554
Ru25_7 Ti15_6 2.547279 1_555
Ru25_7 Ti15_7 2.547279 1_555
Ru25_7 Ti7_7 2.814587 1_555
Ru25_7 Ti7_6 2.814587 1_555
Ru25_7 Ti2_6 2.832675 1_555
Ru25_7 Ti2_7 2.832675 1_555
Ru26_0 Ti17_0 2.547279 1_555
Ru26_0 Ti17_1 2.547279 1_554
Ru26_0 Ti9_1 2.814587 1_554
Ru26_0 Ti9_0 2.814587 1_555
Ru26_0 Ti0_1 2.832675 1_554
Ru26_0 Ti0_0 2.832675 1_555
Ru26_1 Ti17_0 2.547279 1_555
Ru26_1 Ti17_1 2.547279 1_555
Ru26_1 Ti9_0 2.814587 1_555
Ru26_1 Ti9_1 2.814587 1_555
Ru26_1 Ti0_1 2.832675 1_555
Ru26_1 Ti0_0 2.832675 1_555
Ru26_2 Ti17_2 2.547279 1_555
Ru26_2 Ti17_3 2.547279 1_554
Ru26_2 Ti9_2 2.814587 1_555
Ru26_2 Ti9_3 2.814587 1_554
Ru26_2 Ti0_2 2.832675 1_555
Ru26_2 Ti0_3 2.832675 1_554
Ru26_3 Ti17_2 2.547279 1_555
Ru26_3 Ti17_3 2.547279 1_555
Ru26_3 Ti9_2 2.814587 1_555
Ru26_3 Ti9_3 2.814587 1_555
Ru26_3 Ti0_2 2.832675 1_555
Ru26_3 Ti0_3 2.832675 1_555
Ru26_4 Ti17_5 2.547279 1_554
Ru26_4 Ti17_4 2.547279 1_555
Ru26_4 Ti9_4 2.814587 1_555
Ru26_4 Ti9_5 2.814587 1_554
Ru26_4 Ti0_4 2.832675 1_555
Ru26_4 Ti0_5 2.832675 1_554
Ru26_5 Ti17_4 2.547279 1_555
Ru26_5 Ti17_5 2.547279 1_555
Ru26_5 Ti9_4 2.814587 1_555
Ru26_5 Ti9_5 2.814587 1_555
Ru26_5 Ti0_4 2.832675 1_555
Ru26_5 Ti0_5 2.832675 1_555
Ru26_6 Ti17_7 2.547279 1_554
Ru26_6 Ti17_6 2.547279 1_555
Ru26_6 Ti9_7 2.814587 1_554
Ru26_6 Ti9_6 2.814587 1_555
Ru26_6 Ti0_6 2.832675 1_555
Ru26_6 Ti0_7 2.832675 1_554
Ru26_7 Ti17_7 2.547279 1_555
Ru26_7 Ti17_6 2.547279 1_555
Ru26_7 Ti9_6 2.814587 1_555
Ru26_7 Ti9_7 2.814587 1_555
Ru26_7 Ti0_6 2.832675 1_555
Ru26_7 Ti0_7 2.832675 1_555
Ru27_0 Ti16_1 2.547279 1_554
Ru27_0 Ti16_0 2.547279 1_555
Ru27_0 Ti8_1 2.814587 1_554
Ru27_0 Ti8_0 2.814587 1_555
Ru27_0 Ti1_0 2.832675 1_555
Ru27_0 Ti1_1 2.832675 1_554
Ru27_1 Ti16_0 2.547279 1_555
Ru27_1 Ti16_1 2.547279 1_555
Ru27_1 Ti8_1 2.814587 1_555
Ru27_1 Ti8_0 2.814587 1_555
Ru27_1 Ti1_1 2.832675 1_555
Ru27_1 Ti1_0 2.832675 1_555
Ru27_2 Ti16_2 2.547279 1_555
Ru27_2 Ti16_3 2.547279 1_554
Ru27_2 Ti8_3 2.814587 1_554
Ru27_2 Ti8_2 2.814587 1_555
Ru27_2 Ti1_3 2.832675 1_554
Ru27_2 Ti1_2 2.832675 1_555
Ru27_3 Ti16_3 2.547279 1_555
Ru27_3 Ti16_2 2.547279 1_555
Ru27_3 Ti8_2 2.814587 1_555
Ru27_3 Ti8_3 2.814587 1_555
Ru27_3 Ti1_2 2.832675 1_555
Ru27_3 Ti1_3 2.832675 1_555
Ru27_4 Ti16_4 2.547279 1_555
Ru27_4 Ti16_5 2.547279 1_554
Ru27_4 Ti8_5 2.814587 1_554
Ru27_4 Ti8_4 2.814587 1_555
Ru27_4 Ti1_5 2.832675 1_554
Ru27_4 Ti1_4 2.832675 1_555
Ru27_5 Ti16_5 2.547279 1_555
Ru27_5 Ti16_4 2.547279 1_555
Ru27_5 Ti8_4 2.814587 1_555
Ru27_5 Ti8_5 2.814587 1_555
Ru27_5 Ti1_5 2.832675 1_555
Ru27_5 Ti1_4 2.832675 1_555
Ru27_6 Ti16_6 2.547279 1_555
Ru27_6 Ti16_7 2.547279 1_554
Ru27_6 Ti8_7 2.814587 1_554
Ru27_6 Ti8_6 2.814587 1_555
Ru27_6 Ti1_7 2.832675 1_554
Ru27_6 Ti1_6 2.832675 1_555
Ru27_7 Ti16_6 2.547279 1_555
Ru27_7 Ti16_7 2.547279 1_555
Ru27_7 Ti8_7 2.814587 1_555
Ru27_7 Ti8_6 2.814587 1_555
Ru27_7 Ti1_7 2.832675 1_555
Ru27_7 Ti1_6 2.832675 1_555
Ru28_0 Ti4_0 2.590706 1_555
Ru28_0 Ti4_1 2.590706 1_554
Ru28_0 Ti11_1 2.765043 1_554
Ru28_0 Ti11_0 2.765043 1_555
Ru28_0 Ti6_1 2.834781 1_554
Ru28_0 Ti6_0 2.834781 1_555
Ru28_1 Ti4_0 2.590706 1_555
Ru28_1 Ti4_1 2.590706 1_555
Ru28_1 Ti11_1 2.765043 1_555
Ru28_1 Ti11_0 2.765043 1_555
Ru28_1 Ti6_1 2.834781 1_555
Ru28_1 Ti6_0 2.834781 1_555
Ru28_2 Ti4_2 2.590706 1_555
Ru28_2 Ti4_3 2.590706 1_554
Ru28_2 Ti11_3 2.765043 1_554
Ru28_2 Ti11_2 2.765043 1_555
Ru28_2 Ti6_2 2.834781 1_555
Ru28_2 Ti6_3 2.834781 1_554
Ru28_3 Ti4_3 2.590706 1_555
Ru28_3 Ti4_2 2.590706 1_555
Ru28_3 Ti11_3 2.765043 1_555
Ru28_3 Ti11_2 2.765043 1_555
Ru28_3 Ti6_3 2.834781 1_555
Ru28_3 Ti6_2 2.834781 1_555
Ru28_4 Ti4_5 2.590706 1_554
Ru28_4 Ti4_4 2.590706 1_555
Ru28_4 Ti11_4 2.765043 1_555
Ru28_4 Ti11_5 2.765043 1_554
Ru28_4 Ti6_5 2.834781 1_554
Ru28_4 Ti6_4 2.834781 1_555
Ru28_5 Ti4_4 2.590706 1_555
Ru28_5 Ti4_5 2.590706 1_555
Ru28_5 Ti11_4 2.765043 1_555
Ru28_5 Ti11_5 2.765043 1_555
Ru28_5 Ti6_4 2.834781 1_555
Ru28_5 Ti6_5 2.834781 1_555
Ru28_6 Ti4_6 2.590706 1_555
Ru28_6 Ti4_7 2.590706 1_554
Ru28_6 Ti11_7 2.765043 1_554
Ru28_6 Ti11_6 2.765043 1_555
Ru28_6 Ti6_7 2.834781 1_554
Ru28_6 Ti6_6 2.834781 1_555
Ru28_7 Ti4_6 2.590706 1_555
Ru28_7 Ti4_7 2.590706 1_555
Ru28_7 Ti11_7 2.765043 1_555
Ru28_7 Ti11_6 2.765043 1_555
Ru28_7 Ti6_6 2.834781 1_555
Ru28_7 Ti6_7 2.834781 1_555
Ru29_0 Ti4_1 2.590706 1_554
Ru29_0 Ti4_0 2.590706 1_555
Ru29_0 Ti10_0 2.765043 1_555
Ru29_0 Ti10_1 2.765043 1_554
Ru29_0 Ti7_0 2.834781 1_555
Ru29_0 Ti7_1 2.834781 1_554
Ru29_1 Ti4_0 2.590706 1_555
Ru29_1 Ti4_1 2.590706 1_555
Ru29_1 Ti10_0 2.765043 1_555
Ru29_1 Ti10_1 2.765043 1_555
Ru29_1 Ti7_1 2.834781 1_555
Ru29_1 Ti7_0 2.834781 1_555
Ru29_2 Ti4_3 2.590706 1_554
Ru29_2 Ti4_2 2.590706 1_555
Ru29_2 Ti10_3 2.765043 1_554
Ru29_2 Ti10_2 2.765043 1_555
Ru29_2 Ti7_3 2.834781 1_554
Ru29_2 Ti7_2 2.834781 1_555
Ru29_3 Ti4_3 2.590706 1_555
Ru29_3 Ti4_2 2.590706 1_555
Ru29_3 Ti10_2 2.765043 1_555
Ru29_3 Ti10_3 2.765043 1_555
Ru29_3 Ti7_2 2.834781 1_555
Ru29_3 Ti7_3 2.834781 1_555
Ru29_4 Ti4_4 2.590706 1_555
Ru29_4 Ti4_5 2.590706 1_554
Ru29_4 Ti10_5 2.765043 1_554
Ru29_4 Ti10_4 2.765043 1_555
Ru29_4 Ti7_4 2.834781 1_555
Ru29_4 Ti7_5 2.834781 1_554
Ru29_5 Ti4_4 2.590706 1_555
Ru29_5 Ti4_5 2.590706 1_555
Ru29_5 Ti10_5 2.765043 1_555
Ru29_5 Ti10_4 2.765043 1_555
Ru29_5 Ti7_5 2.834781 1_555
Ru29_5 Ti7_4 2.834781 1_555
Ru29_6 Ti4_7 2.590706 1_554
Ru29_6 Ti4_6 2.590706 1_555
Ru29_6 Ti10_6 2.765043 1_555
Ru29_6 Ti10_7 2.765043 1_554
Ru29_6 Ti7_7 2.834781 1_554
Ru29_6 Ti7_6 2.834781 1_555
Ru29_7 Ti4_6 2.590706 1_555
Ru29_7 Ti4_7 2.590706 1_555
Ru29_7 Ti10_6 2.765043 1_555
Ru29_7 Ti10_7 2.765043 1_555
Ru29_7 Ti7_6 2.834781 1_555
Ru29_7 Ti7_7 2.834781 1_555
Ru30_0 Ti5_1 2.590706 1_554
Ru30_0 Ti5_0 2.590706 1_555
Ru30_0 Ti12_1 2.765043 1_554
Ru30_0 Ti12_0 2.765043 1_555
Ru30_0 Ti8_2 2.834781 1_545
Ru30_0 Ti8_3 2.834781 1_544
Ru30_1 Ti5_0 2.590706 1_555
Ru30_1 Ti5_1 2.590706 1_555
Ru30_1 Ti12_1 2.765043 1_555
Ru30_1 Ti12_0 2.765043 1_555
Ru30_1 Ti8_3 2.834781 1_545
Ru30_1 Ti8_2 2.834781 1_545
Ru30_2 Ti5_3 2.590706 1_554
Ru30_2 Ti5_2 2.590706 1_555
Ru30_2 Ti12_3 2.765043 1_554
Ru30_2 Ti12_2 2.765043 1_555
Ru30_2 Ti8_1 2.834781 1_554
Ru30_2 Ti8_0 2.834781 1_555
Ru30_3 Ti5_3 2.590706 1_555
Ru30_3 Ti5_2 2.590706 1_555
Ru30_3 Ti12_2 2.765043 1_555
Ru30_3 Ti12_3 2.765043 1_555
Ru30_3 Ti8_1 2.834781 1_555
Ru30_3 Ti8_0 2.834781 1_555
Ru30_4 Ti5_5 2.590706 1_554
Ru30_4 Ti5_4 2.590706 1_555
Ru30_4 Ti12_5 2.765043 1_554
Ru30_4 Ti12_4 2.765043 1_555
Ru30_4 Ti8_6 2.834781 1_545
Ru30_4 Ti8_7 2.834781 1_544
Ru30_5 Ti5_4 2.590706 1_555
Ru30_5 Ti5_5 2.590706 1_555
Ru30_5 Ti12_4 2.765043 1_555
Ru30_5 Ti12_5 2.765043 1_555
Ru30_5 Ti8_6 2.834781 1_545
Ru30_5 Ti8_7 2.834781 1_545
Ru30_6 Ti5_7 2.590706 1_554
Ru30_6 Ti5_6 2.590706 1_555
Ru30_6 Ti12_7 2.765043 1_554
Ru30_6 Ti12_6 2.765043 1_555
Ru30_6 Ti8_4 2.834781 1_555
Ru30_6 Ti8_5 2.834781 1_554
Ru30_7 Ti5_6 2.590706 1_555
Ru30_7 Ti5_7 2.590706 1_555
Ru30_7 Ti12_7 2.765043 1_555
Ru30_7 Ti12_6 2.765043 1_555
Ru30_7 Ti8_5 2.834781 1_555
Ru30_7 Ti8_4 2.834781 1_555
Ru31_0 Ti5_7 2.590706 1_554
Ru31_0 Ti5_6 2.590706 1_555
Ru31_0 Ti13_1 2.765043 1_554
Ru31_0 Ti13_0 2.765043 1_555
Ru31_0 Ti9_3 2.834781 1_554
Ru31_0 Ti9_2 2.834781 1_555
Ru31_1 Ti5_7 2.590706 1_555
Ru31_1 Ti5_6 2.590706 1_555
Ru31_1 Ti13_1 2.765043 1_555
Ru31_1 Ti13_0 2.765043 1_555
Ru31_1 Ti9_2 2.834781 1_555
Ru31_1 Ti9_3 2.834781 1_555
Ru31_2 Ti5_5 2.590706 1_564
Ru31_2 Ti5_4 2.590706 1_565
Ru31_2 Ti13_3 2.765043 1_554
Ru31_2 Ti13_2 2.765043 1_555
Ru31_2 Ti9_1 2.834781 1_564
Ru31_2 Ti9_0 2.834781 1_565
Ru31_3 Ti5_5 2.590706 1_565
Ru31_3 Ti5_4 2.590706 1_565
Ru31_3 Ti13_3 2.765043 1_555
Ru31_3 Ti13_2 2.765043 1_555
Ru31_3 Ti9_1 2.834781 1_565
Ru31_3 Ti9_0 2.834781 1_565
Ru31_4 Ti5_3 2.590706 1_654
Ru31_4 Ti5_2 2.590706 1_655
Ru31_4 Ti13_5 2.765043 1_554
Ru31_4 Ti13_4 2.765043 1_555
Ru31_4 Ti9_7 2.834781 1_554
Ru31_4 Ti9_6 2.834781 1_555
Ru31_5 Ti5_3 2.590706 1_655
Ru31_5 Ti5_2 2.590706 1_655
Ru31_5 Ti13_4 2.765043 1_555
Ru31_5 Ti13_5 2.765043 1_555
Ru31_5 Ti9_6 2.834781 1_555
Ru31_5 Ti9_7 2.834781 1_555
Ru31_6 Ti5_1 2.590706 1_664
Ru31_6 Ti5_0 2.590706 1_665
Ru31_6 Ti13_6 2.765043 1_555
Ru31_6 Ti13_7 2.765043 1_554
Ru31_6 Ti9_5 2.834781 1_564
Ru31_6 Ti9_4 2.834781 1_565
Ru31_7 Ti5_1 2.590706 1_665
Ru31_7 Ti5_0 2.590706 1_665
Ru31_7 Ti13_6 2.765043 1_555
Ru31_7 Ti13_7 2.765043 1_555
Ru31_7 Ti9_4 2.834781 1_565
Ru31_7 Ti9_5 2.834781 1_565
Ru32_0 Ti4_1 2.590706 1_554
Ru32_0 Ti4_0 2.590706 1_555
Ru32_0 Ti6_1 2.765043 1_554
Ru32_0 Ti6_0 2.765043 1_555
Ru32_0 Ti10_0 2.834781 1_555
Ru32_0 Ti10_1 2.834781 1_554
Ru32_1 Ti4_1 2.590706 1_555
Ru32_1 Ti4_0 2.590706 1_555
Ru32_1 Ti6_0 2.765043 1_555
Ru32_1 Ti6_1 2.765043 1_555
Ru32_1 Ti10_0 2.834781 1_555
Ru32_1 Ti10_1 2.834781 1_555
Ru32_2 Ti4_2 2.590706 1_555
Ru32_2 Ti4_3 2.590706 1_554
Ru32_2 Ti6_2 2.765043 1_555
Ru32_2 Ti6_3 2.765043 1_554
Ru32_2 Ti10_3 2.834781 1_554
Ru32_2 Ti10_2 2.834781 1_555
Ru32_3 Ti4_2 2.590706 1_555
Ru32_3 Ti4_3 2.590706 1_555
Ru32_3 Ti6_2 2.765043 1_555
Ru32_3 Ti6_3 2.765043 1_555
Ru32_3 Ti10_3 2.834781 1_555
Ru32_3 Ti10_2 2.834781 1_555
Ru32_4 Ti4_5 2.590706 1_554
Ru32_4 Ti4_4 2.590706 1_555
Ru32_4 Ti6_4 2.765043 1_555
Ru32_4 Ti6_5 2.765043 1_554
Ru32_4 Ti10_4 2.834781 1_555
Ru32_4 Ti10_5 2.834781 1_554
Ru32_5 Ti4_4 2.590706 1_555
Ru32_5 Ti4_5 2.590706 1_555
Ru32_5 Ti6_5 2.765043 1_555
Ru32_5 Ti6_4 2.765043 1_555
Ru32_5 Ti10_5 2.834781 1_555
Ru32_5 Ti10_4 2.834781 1_555
Ru32_6 Ti4_6 2.590706 1_555
Ru32_6 Ti4_7 2.590706 1_554
Ru32_6 Ti6_6 2.765043 1_555
Ru32_6 Ti6_7 2.765043 1_554
Ru32_6 Ti10_7 2.834781 1_554
Ru32_6 Ti10_6 2.834781 1_555
Ru32_7 Ti4_6 2.590706 1_555
Ru32_7 Ti4_7 2.590706 1_555
Ru32_7 Ti6_6 2.765043 1_555
Ru32_7 Ti6_7 2.765043 1_555
Ru32_7 Ti10_6 2.834781 1_555
Ru32_7 Ti10_7 2.834781 1_555
Ru33_0 Ti4_1 2.590706 1_554
Ru33_0 Ti4_0 2.590706 1_555
Ru33_0 Ti7_1 2.765043 1_554
Ru33_0 Ti7_0 2.765043 1_555
Ru33_0 Ti11_1 2.834781 1_554
Ru33_0 Ti11_0 2.834781 1_555
Ru33_1 Ti4_0 2.590706 1_555
Ru33_1 Ti4_1 2.590706 1_555
Ru33_1 Ti7_0 2.765043 1_555
Ru33_1 Ti7_1 2.765043 1_555
Ru33_1 Ti11_0 2.834781 1_555
Ru33_1 Ti11_1 2.834781 1_555
Ru33_2 Ti4_3 2.590706 1_554
Ru33_2 Ti4_2 2.590706 1_555
Ru33_2 Ti7_3 2.765043 1_554
Ru33_2 Ti7_2 2.765043 1_555
Ru33_2 Ti11_3 2.834781 1_554
Ru33_2 Ti11_2 2.834781 1_555
Ru33_3 Ti4_2 2.590706 1_555
Ru33_3 Ti4_3 2.590706 1_555
Ru33_3 Ti7_3 2.765043 1_555
Ru33_3 Ti7_2 2.765043 1_555
Ru33_3 Ti11_2 2.834781 1_555
Ru33_3 Ti11_3 2.834781 1_555
Ru33_4 Ti4_4 2.590706 1_555
Ru33_4 Ti4_5 2.590706 1_554
Ru33_4 Ti7_5 2.765043 1_554
Ru33_4 Ti7_4 2.765043 1_555
Ru33_4 Ti11_4 2.834781 1_555
Ru33_4 Ti11_5 2.834781 1_554
Ru33_5 Ti4_4 2.590706 1_555
Ru33_5 Ti4_5 2.590706 1_555
Ru33_5 Ti7_4 2.765043 1_555
Ru33_5 Ti7_5 2.765043 1_555
Ru33_5 Ti11_4 2.834781 1_555
Ru33_5 Ti11_5 2.834781 1_555
Ru33_6 Ti4_7 2.590706 1_554
Ru33_6 Ti4_6 2.590706 1_555
Ru33_6 Ti7_6 2.765043 1_555
Ru33_6 Ti7_7 2.765043 1_554
Ru33_6 Ti11_7 2.834781 1_554
Ru33_6 Ti11_6 2.834781 1_555
Ru33_7 Ti4_6 2.590706 1_555
Ru33_7 Ti4_7 2.590706 1_555
Ru33_7 Ti7_6 2.765043 1_555
Ru33_7 Ti7_7 2.765043 1_555
Ru33_7 Ti11_7 2.834781 1_555
Ru33_7 Ti11_6 2.834781 1_555
Ru34_0 Ti5_5 2.590706 1_554
Ru34_0 Ti5_4 2.590706 1_555
Ru34_0 Ti9_1 2.765043 1_554
Ru34_0 Ti9_0 2.765043 1_555
Ru34_0 Ti12_5 2.834781 1_554
Ru34_0 Ti12_4 2.834781 1_555
Ru34_1 Ti5_4 2.590706 1_555
Ru34_1 Ti5_5 2.590706 1_555
Ru34_1 Ti9_0 2.765043 1_555
Ru34_1 Ti9_1 2.765043 1_555
Ru34_1 Ti12_4 2.834781 1_555
Ru34_1 Ti12_5 2.834781 1_555
Ru34_2 Ti5_7 2.590706 1_554
Ru34_2 Ti5_6 2.590706 1_555
Ru34_2 Ti9_3 2.765043 1_554
Ru34_2 Ti9_2 2.765043 1_555
Ru34_2 Ti12_7 2.834781 1_554
Ru34_2 Ti12_6 2.834781 1_555
Ru34_3 Ti5_6 2.590706 1_555
Ru34_3 Ti5_7 2.590706 1_555
Ru34_3 Ti9_2 2.765043 1_555
Ru34_3 Ti9_3 2.765043 1_555
Ru34_3 Ti12_6 2.834781 1_555
Ru34_3 Ti12_7 2.834781 1_555
Ru34_4 Ti5_0 2.590706 1_655
Ru34_4 Ti5_1 2.590706 1_654
Ru34_4 Ti9_5 2.765043 1_554
Ru34_4 Ti9_4 2.765043 1_555
Ru34_4 Ti12_1 2.834781 1_654
Ru34_4 Ti12_0 2.834781 1_655
Ru34_5 Ti5_0 2.590706 1_655
Ru34_5 Ti5_1 2.590706 1_655
Ru34_5 Ti9_4 2.765043 1_555
Ru34_5 Ti9_5 2.765043 1_555
Ru34_5 Ti12_1 2.834781 1_655
Ru34_5 Ti12_0 2.834781 1_655
Ru34_6 Ti5_3 2.590706 1_654
Ru34_6 Ti5_2 2.590706 1_655
Ru34_6 Ti9_7 2.765043 1_554
Ru34_6 Ti9_6 2.765043 1_555
Ru34_6 Ti12_2 2.834781 1_655
Ru34_6 Ti12_3 2.834781 1_654
Ru34_7 Ti5_3 2.590706 1_655
Ru34_7 Ti5_2 2.590706 1_655
Ru34_7 Ti9_6 2.765043 1_555
Ru34_7 Ti9_7 2.765043 1_555
Ru34_7 Ti12_2 2.834781 1_655
Ru34_7 Ti12_3 2.834781 1_655
Ru35_0 Ti5_3 2.590706 1_554
Ru35_0 Ti5_2 2.590706 1_555
Ru35_0 Ti8_0 2.765043 1_555
Ru35_0 Ti8_1 2.765043 1_554
Ru35_0 Ti13_5 2.834781 1_454
Ru35_0 Ti13_4 2.834781 1_455
Ru35_1 Ti5_3 2.590706 1_555
Ru35_1 Ti5_2 2.590706 1_555
Ru35_1 Ti8_0 2.765043 1_555
Ru35_1 Ti8_1 2.765043 1_555
Ru35_1 Ti13_5 2.834781 1_455
Ru35_1 Ti13_4 2.834781 1_455
Ru35_2 Ti5_0 2.590706 1_565
Ru35_2 Ti5_1 2.590706 1_564
Ru35_2 Ti8_3 2.765043 1_554
Ru35_2 Ti8_2 2.765043 1_555
Ru35_2 Ti13_7 2.834781 1_454
Ru35_2 Ti13_6 2.834781 1_455
Ru35_3 Ti5_1 2.590706 1_565
Ru35_3 Ti5_0 2.590706 1_565
Ru35_3 Ti8_3 2.765043 1_555
Ru35_3 Ti8_2 2.765043 1_555
Ru35_3 Ti13_6 2.834781 1_455
Ru35_3 Ti13_7 2.834781 1_455
Ru35_4 Ti5_7 2.590706 1_554
Ru35_4 Ti5_6 2.590706 1_555
Ru35_4 Ti8_5 2.765043 1_554
Ru35_4 Ti8_4 2.765043 1_555
Ru35_4 Ti13_0 2.834781 1_555
Ru35_4 Ti13_1 2.834781 1_554
Ru35_5 Ti5_7 2.590706 1_555
Ru35_5 Ti5_6 2.590706 1_555
Ru35_5 Ti8_5 2.765043 1_555
Ru35_5 Ti8_4 2.765043 1_555
Ru35_5 Ti13_0 2.834781 1_555
Ru35_5 Ti13_1 2.834781 1_555
Ru35_6 Ti5_4 2.590706 1_565
Ru35_6 Ti5_5 2.590706 1_564
Ru35_6 Ti8_6 2.765043 1_555
Ru35_6 Ti8_7 2.765043 1_554
Ru35_6 Ti13_3 2.834781 1_554
Ru35_6 Ti13_2 2.834781 1_555
Ru35_7 Ti5_4 2.590706 1_565
Ru35_7 Ti5_5 2.590706 1_565
Ru35_7 Ti8_7 2.765043 1_555
Ru35_7 Ti8_6 2.765043 1_555
Ru35_7 Ti13_3 2.834781 1_555
Ru35_7 Ti13_2 2.834781 1_555
