# generated using pymatgen
data_Mg5Mn4
_symmetry_space_group_name_H-M   'P 1'
_cell_length_a   5.72705200
_cell_length_b   19.73643000
_cell_length_c   46.66976000
_cell_angle_alpha   90.00000000
_cell_angle_beta   90.00000000
_cell_angle_gamma   90.00000000
_symmetry_Int_Tables_number   1
_chemical_formula_structural   Mg5Mn4
_chemical_formula_sum   'Mg160 Mn128'
_cell_volume   5275.15581983
_cell_formula_units_Z   32
loop_
 _symmetry_equiv_pos_site_id
 _symmetry_equiv_pos_as_xyz
  1  'x, y, z'
loop_
 _atom_site_type_symbol
 _atom_site_label
 _atom_site_symmetry_multiplicity
 _atom_site_fract_x
 _atom_site_fract_y
 _atom_site_fract_z
 _atom_site_occupancy
  Mg  Mg0_0  1  0.25000000  0.19698100  0.18422650  1
  Mg  Mg0_1  1  0.25000000  0.19698100  0.68422650  1
  Mg  Mg0_2  1  0.25000000  0.69698100  0.18422650  1
  Mg  Mg0_3  1  0.25000000  0.69698100  0.68422650  1
  Mg  Mg0_4  1  0.75000000  0.19698100  0.18422650  1
  Mg  Mg0_5  1  0.75000000  0.19698100  0.68422650  1
  Mg  Mg0_6  1  0.75000000  0.69698100  0.18422650  1
  Mg  Mg0_7  1  0.75000000  0.69698100  0.68422650  1
  Mg  Mg1_0  1  0.25000000  0.30301900  0.31577350  1
  Mg  Mg1_1  1  0.25000000  0.30301900  0.81577350  1
  Mg  Mg1_2  1  0.25000000  0.80301900  0.31577350  1
  Mg  Mg1_3  1  0.25000000  0.80301900  0.81577350  1
  Mg  Mg1_4  1  0.75000000  0.30301900  0.31577350  1
  Mg  Mg1_5  1  0.75000000  0.30301900  0.81577350  1
  Mg  Mg1_6  1  0.75000000  0.80301900  0.31577350  1
  Mg  Mg1_7  1  0.75000000  0.80301900  0.81577350  1
  Mg  Mg2_0  1  0.25000000  0.05301900  0.43422650  1
  Mg  Mg2_1  1  0.25000000  0.05301900  0.93422650  1
  Mg  Mg2_2  1  0.25000000  0.55301900  0.43422650  1
  Mg  Mg2_3  1  0.25000000  0.55301900  0.93422650  1
  Mg  Mg2_4  1  0.75000000  0.05301900  0.43422650  1
  Mg  Mg2_5  1  0.75000000  0.05301900  0.93422650  1
  Mg  Mg2_6  1  0.75000000  0.55301900  0.43422650  1
  Mg  Mg2_7  1  0.75000000  0.55301900  0.93422650  1
  Mg  Mg3_0  1  0.25000000  0.44698100  0.06577350  1
  Mg  Mg3_1  1  0.25000000  0.44698100  0.56577350  1
  Mg  Mg3_2  1  0.25000000  0.94698100  0.06577350  1
  Mg  Mg3_3  1  0.25000000  0.94698100  0.56577350  1
  Mg  Mg3_4  1  0.75000000  0.44698100  0.06577350  1
  Mg  Mg3_5  1  0.75000000  0.44698100  0.56577350  1
  Mg  Mg3_6  1  0.75000000  0.94698100  0.06577350  1
  Mg  Mg3_7  1  0.75000000  0.94698100  0.56577350  1
  Mg  Mg4_0  1  0.00000000  0.18762650  0.12297150  1
  Mg  Mg4_1  1  0.00000000  0.18762650  0.62297150  1
  Mg  Mg4_2  1  0.00000000  0.68762650  0.12297150  1
  Mg  Mg4_3  1  0.00000000  0.68762650  0.62297150  1
  Mg  Mg4_4  1  0.50000000  0.18762650  0.12297150  1
  Mg  Mg4_5  1  0.50000000  0.18762650  0.62297150  1
  Mg  Mg4_6  1  0.50000000  0.68762650  0.12297150  1
  Mg  Mg4_7  1  0.50000000  0.68762650  0.62297150  1
  Mg  Mg5_0  1  0.00000000  0.31237350  0.37702850  1
  Mg  Mg5_1  1  0.00000000  0.31237350  0.87702850  1
  Mg  Mg5_2  1  0.00000000  0.81237350  0.37702850  1
  Mg  Mg5_3  1  0.00000000  0.81237350  0.87702850  1
  Mg  Mg5_4  1  0.50000000  0.31237350  0.37702850  1
  Mg  Mg5_5  1  0.50000000  0.31237350  0.87702850  1
  Mg  Mg5_6  1  0.50000000  0.81237350  0.37702850  1
  Mg  Mg5_7  1  0.50000000  0.81237350  0.87702850  1
  Mg  Mg6_0  1  0.00000000  0.06237350  0.37297150  1
  Mg  Mg6_1  1  0.00000000  0.06237350  0.87297150  1
  Mg  Mg6_2  1  0.00000000  0.56237350  0.37297150  1
  Mg  Mg6_3  1  0.00000000  0.56237350  0.87297150  1
  Mg  Mg6_4  1  0.50000000  0.06237350  0.37297150  1
  Mg  Mg6_5  1  0.50000000  0.06237350  0.87297150  1
  Mg  Mg6_6  1  0.50000000  0.56237350  0.37297150  1
  Mg  Mg6_7  1  0.50000000  0.56237350  0.87297150  1
  Mg  Mg7_0  1  0.00000000  0.43762650  0.12702850  1
  Mg  Mg7_1  1  0.00000000  0.43762650  0.62702850  1
  Mg  Mg7_2  1  0.00000000  0.93762650  0.12702850  1
  Mg  Mg7_3  1  0.00000000  0.93762650  0.62702850  1
  Mg  Mg7_4  1  0.50000000  0.43762650  0.12702850  1
  Mg  Mg7_5  1  0.50000000  0.43762650  0.62702850  1
  Mg  Mg7_6  1  0.50000000  0.93762650  0.12702850  1
  Mg  Mg7_7  1  0.50000000  0.93762650  0.62702850  1
  Mg  Mg8_0  1  0.00000000  0.05751100  0.20023150  1
  Mg  Mg8_1  1  0.00000000  0.05751100  0.70023150  1
  Mg  Mg8_2  1  0.00000000  0.55751100  0.20023150  1
  Mg  Mg8_3  1  0.00000000  0.55751100  0.70023150  1
  Mg  Mg8_4  1  0.50000000  0.05751100  0.20023150  1
  Mg  Mg8_5  1  0.50000000  0.05751100  0.70023150  1
  Mg  Mg8_6  1  0.50000000  0.55751100  0.20023150  1
  Mg  Mg8_7  1  0.50000000  0.55751100  0.70023150  1
  Mg  Mg9_0  1  0.00000000  0.44248900  0.29976850  1
  Mg  Mg9_1  1  0.00000000  0.44248900  0.79976850  1
  Mg  Mg9_2  1  0.00000000  0.94248900  0.29976850  1
  Mg  Mg9_3  1  0.00000000  0.94248900  0.79976850  1
  Mg  Mg9_4  1  0.50000000  0.44248900  0.29976850  1
  Mg  Mg9_5  1  0.50000000  0.44248900  0.79976850  1
  Mg  Mg9_6  1  0.50000000  0.94248900  0.29976850  1
  Mg  Mg9_7  1  0.50000000  0.94248900  0.79976850  1
  Mg  Mg10_0  1  0.00000000  0.19248900  0.45023150  1
  Mg  Mg10_1  1  0.00000000  0.19248900  0.95023150  1
  Mg  Mg10_2  1  0.00000000  0.69248900  0.45023150  1
  Mg  Mg10_3  1  0.00000000  0.69248900  0.95023150  1
  Mg  Mg10_4  1  0.50000000  0.19248900  0.45023150  1
  Mg  Mg10_5  1  0.50000000  0.19248900  0.95023150  1
  Mg  Mg10_6  1  0.50000000  0.69248900  0.45023150  1
  Mg  Mg10_7  1  0.50000000  0.69248900  0.95023150  1
  Mg  Mg11_0  1  0.00000000  0.30751100  0.04976850  1
  Mg  Mg11_1  1  0.00000000  0.30751100  0.54976850  1
  Mg  Mg11_2  1  0.00000000  0.80751100  0.04976850  1
  Mg  Mg11_3  1  0.00000000  0.80751100  0.54976850  1
  Mg  Mg11_4  1  0.50000000  0.30751100  0.04976850  1
  Mg  Mg11_5  1  0.50000000  0.30751100  0.54976850  1
  Mg  Mg11_6  1  0.50000000  0.80751100  0.04976850  1
  Mg  Mg11_7  1  0.50000000  0.80751100  0.54976850  1
  Mg  Mg12_0  1  0.25000000  0.11590700  0.00069450  1
  Mg  Mg12_1  1  0.25000000  0.11590700  0.50069450  1
  Mg  Mg12_2  1  0.25000000  0.61590700  0.00069450  1
  Mg  Mg12_3  1  0.25000000  0.61590700  0.50069450  1
  Mg  Mg12_4  1  0.75000000  0.11590700  0.00069450  1
  Mg  Mg12_5  1  0.75000000  0.11590700  0.50069450  1
  Mg  Mg12_6  1  0.75000000  0.61590700  0.00069450  1
  Mg  Mg12_7  1  0.75000000  0.61590700  0.50069450  1
  Mg  Mg13_0  1  0.25000000  0.38409300  0.49930550  1
  Mg  Mg13_1  1  0.25000000  0.38409300  0.99930550  1
  Mg  Mg13_2  1  0.25000000  0.88409300  0.49930550  1
  Mg  Mg13_3  1  0.25000000  0.88409300  0.99930550  1
  Mg  Mg13_4  1  0.75000000  0.38409300  0.49930550  1
  Mg  Mg13_5  1  0.75000000  0.38409300  0.99930550  1
  Mg  Mg13_6  1  0.75000000  0.88409300  0.49930550  1
  Mg  Mg13_7  1  0.75000000  0.88409300  0.99930550  1
  Mg  Mg14_0  1  0.25000000  0.13409300  0.25069450  1
  Mg  Mg14_1  1  0.25000000  0.13409300  0.75069450  1
  Mg  Mg14_2  1  0.25000000  0.63409300  0.25069450  1
  Mg  Mg14_3  1  0.25000000  0.63409300  0.75069450  1
  Mg  Mg14_4  1  0.75000000  0.13409300  0.25069450  1
  Mg  Mg14_5  1  0.75000000  0.13409300  0.75069450  1
  Mg  Mg14_6  1  0.75000000  0.63409300  0.25069450  1
  Mg  Mg14_7  1  0.75000000  0.63409300  0.75069450  1
  Mg  Mg15_0  1  0.25000000  0.36590700  0.24930550  1
  Mg  Mg15_1  1  0.25000000  0.36590700  0.74930550  1
  Mg  Mg15_2  1  0.25000000  0.86590700  0.24930550  1
  Mg  Mg15_3  1  0.25000000  0.86590700  0.74930550  1
  Mg  Mg15_4  1  0.75000000  0.36590700  0.24930550  1
  Mg  Mg15_5  1  0.75000000  0.36590700  0.74930550  1
  Mg  Mg15_6  1  0.75000000  0.86590700  0.24930550  1
  Mg  Mg15_7  1  0.75000000  0.86590700  0.74930550  1
  Mg  Mg16_0  1  0.25000000  0.17158500  0.06363700  1
  Mg  Mg16_1  1  0.25000000  0.17158500  0.56363700  1
  Mg  Mg16_2  1  0.25000000  0.67158500  0.06363700  1
  Mg  Mg16_3  1  0.25000000  0.67158500  0.56363700  1
  Mg  Mg16_4  1  0.75000000  0.17158500  0.06363700  1
  Mg  Mg16_5  1  0.75000000  0.17158500  0.56363700  1
  Mg  Mg16_6  1  0.75000000  0.67158500  0.06363700  1
  Mg  Mg16_7  1  0.75000000  0.67158500  0.56363700  1
  Mg  Mg17_0  1  0.25000000  0.32841500  0.43636300  1
  Mg  Mg17_1  1  0.25000000  0.32841500  0.93636300  1
  Mg  Mg17_2  1  0.25000000  0.82841500  0.43636300  1
  Mg  Mg17_3  1  0.25000000  0.82841500  0.93636300  1
  Mg  Mg17_4  1  0.75000000  0.32841500  0.43636300  1
  Mg  Mg17_5  1  0.75000000  0.32841500  0.93636300  1
  Mg  Mg17_6  1  0.75000000  0.82841500  0.43636300  1
  Mg  Mg17_7  1  0.75000000  0.82841500  0.93636300  1
  Mg  Mg18_0  1  0.25000000  0.07841500  0.31363700  1
  Mg  Mg18_1  1  0.25000000  0.07841500  0.81363700  1
  Mg  Mg18_2  1  0.25000000  0.57841500  0.31363700  1
  Mg  Mg18_3  1  0.25000000  0.57841500  0.81363700  1
  Mg  Mg18_4  1  0.75000000  0.07841500  0.31363700  1
  Mg  Mg18_5  1  0.75000000  0.07841500  0.81363700  1
  Mg  Mg18_6  1  0.75000000  0.57841500  0.31363700  1
  Mg  Mg18_7  1  0.75000000  0.57841500  0.81363700  1
  Mg  Mg19_0  1  0.25000000  0.42158500  0.18636300  1
  Mg  Mg19_1  1  0.25000000  0.42158500  0.68636300  1
  Mg  Mg19_2  1  0.25000000  0.92158500  0.18636300  1
  Mg  Mg19_3  1  0.25000000  0.92158500  0.68636300  1
  Mg  Mg19_4  1  0.75000000  0.42158500  0.18636300  1
  Mg  Mg19_5  1  0.75000000  0.42158500  0.68636300  1
  Mg  Mg19_6  1  0.75000000  0.92158500  0.18636300  1
  Mg  Mg19_7  1  0.75000000  0.92158500  0.68636300  1
  Mn  Mn0_0  1  0.25000000  0.00000000  0.25000000  1
  Mn  Mn0_1  1  0.25000000  0.00000000  0.75000000  1
  Mn  Mn0_2  1  0.25000000  0.50000000  0.25000000  1
  Mn  Mn0_3  1  0.25000000  0.50000000  0.75000000  1
  Mn  Mn0_4  1  0.75000000  0.00000000  0.25000000  1
  Mn  Mn0_5  1  0.75000000  0.00000000  0.75000000  1
  Mn  Mn0_6  1  0.75000000  0.50000000  0.25000000  1
  Mn  Mn0_7  1  0.75000000  0.50000000  0.75000000  1
  Mn  Mn1_0  1  0.25000000  0.25000000  0.00000000  1
  Mn  Mn1_1  1  0.25000000  0.25000000  0.50000000  1
  Mn  Mn1_2  1  0.25000000  0.75000000  0.00000000  1
  Mn  Mn1_3  1  0.25000000  0.75000000  0.50000000  1
  Mn  Mn1_4  1  0.75000000  0.25000000  0.00000000  1
  Mn  Mn1_5  1  0.75000000  0.25000000  0.50000000  1
  Mn  Mn1_6  1  0.75000000  0.75000000  0.00000000  1
  Mn  Mn1_7  1  0.75000000  0.75000000  0.50000000  1
  Mn  Mn2_0  1  0.00000000  0.06009450  0.09833850  1
  Mn  Mn2_1  1  0.00000000  0.06009450  0.59833850  1
  Mn  Mn2_2  1  0.00000000  0.56009450  0.09833850  1
  Mn  Mn2_3  1  0.00000000  0.56009450  0.59833850  1
  Mn  Mn2_4  1  0.50000000  0.06009450  0.09833850  1
  Mn  Mn2_5  1  0.50000000  0.06009450  0.59833850  1
  Mn  Mn2_6  1  0.50000000  0.56009450  0.09833850  1
  Mn  Mn2_7  1  0.50000000  0.56009450  0.59833850  1
  Mn  Mn3_0  1  0.00000000  0.43990550  0.40166150  1
  Mn  Mn3_1  1  0.00000000  0.43990550  0.90166150  1
  Mn  Mn3_2  1  0.00000000  0.93990550  0.40166150  1
  Mn  Mn3_3  1  0.00000000  0.93990550  0.90166150  1
  Mn  Mn3_4  1  0.50000000  0.43990550  0.40166150  1
  Mn  Mn3_5  1  0.50000000  0.43990550  0.90166150  1
  Mn  Mn3_6  1  0.50000000  0.93990550  0.40166150  1
  Mn  Mn3_7  1  0.50000000  0.93990550  0.90166150  1
  Mn  Mn4_0  1  0.00000000  0.18990550  0.34833850  1
  Mn  Mn4_1  1  0.00000000  0.18990550  0.84833850  1
  Mn  Mn4_2  1  0.00000000  0.68990550  0.34833850  1
  Mn  Mn4_3  1  0.00000000  0.68990550  0.84833850  1
  Mn  Mn4_4  1  0.50000000  0.18990550  0.34833850  1
  Mn  Mn4_5  1  0.50000000  0.18990550  0.84833850  1
  Mn  Mn4_6  1  0.50000000  0.68990550  0.34833850  1
  Mn  Mn4_7  1  0.50000000  0.68990550  0.84833850  1
  Mn  Mn5_0  1  0.00000000  0.31009450  0.15166150  1
  Mn  Mn5_1  1  0.00000000  0.31009450  0.65166150  1
  Mn  Mn5_2  1  0.00000000  0.81009450  0.15166150  1
  Mn  Mn5_3  1  0.00000000  0.81009450  0.65166150  1
  Mn  Mn5_4  1  0.50000000  0.31009450  0.15166150  1
  Mn  Mn5_5  1  0.50000000  0.31009450  0.65166150  1
  Mn  Mn5_6  1  0.50000000  0.81009450  0.15166150  1
  Mn  Mn5_7  1  0.50000000  0.81009450  0.65166150  1
  Mn  Mn6_0  1  0.00000000  0.19193850  0.29470100  1
  Mn  Mn6_1  1  0.00000000  0.19193850  0.79470100  1
  Mn  Mn6_2  1  0.00000000  0.69193850  0.29470100  1
  Mn  Mn6_3  1  0.00000000  0.69193850  0.79470100  1
  Mn  Mn6_4  1  0.50000000  0.19193850  0.29470100  1
  Mn  Mn6_5  1  0.50000000  0.19193850  0.79470100  1
  Mn  Mn6_6  1  0.50000000  0.69193850  0.29470100  1
  Mn  Mn6_7  1  0.50000000  0.69193850  0.79470100  1
  Mn  Mn7_0  1  0.00000000  0.30806150  0.20529900  1
  Mn  Mn7_1  1  0.00000000  0.30806150  0.70529900  1
  Mn  Mn7_2  1  0.00000000  0.80806150  0.20529900  1
  Mn  Mn7_3  1  0.00000000  0.80806150  0.70529900  1
  Mn  Mn7_4  1  0.50000000  0.30806150  0.20529900  1
  Mn  Mn7_5  1  0.50000000  0.30806150  0.70529900  1
  Mn  Mn7_6  1  0.50000000  0.80806150  0.20529900  1
  Mn  Mn7_7  1  0.50000000  0.80806150  0.70529900  1
  Mn  Mn8_0  1  0.00000000  0.05806150  0.04470100  1
  Mn  Mn8_1  1  0.00000000  0.05806150  0.54470100  1
  Mn  Mn8_2  1  0.00000000  0.55806150  0.04470100  1
  Mn  Mn8_3  1  0.00000000  0.55806150  0.54470100  1
  Mn  Mn8_4  1  0.50000000  0.05806150  0.04470100  1
  Mn  Mn8_5  1  0.50000000  0.05806150  0.54470100  1
  Mn  Mn8_6  1  0.50000000  0.55806150  0.04470100  1
  Mn  Mn8_7  1  0.50000000  0.55806150  0.54470100  1
  Mn  Mn9_0  1  0.00000000  0.44193850  0.45529900  1
  Mn  Mn9_1  1  0.00000000  0.44193850  0.95529900  1
  Mn  Mn9_2  1  0.00000000  0.94193850  0.45529900  1
  Mn  Mn9_3  1  0.00000000  0.94193850  0.95529900  1
  Mn  Mn9_4  1  0.50000000  0.44193850  0.45529900  1
  Mn  Mn9_5  1  0.50000000  0.44193850  0.95529900  1
  Mn  Mn9_6  1  0.50000000  0.94193850  0.45529900  1
  Mn  Mn9_7  1  0.50000000  0.94193850  0.95529900  1
  Mn  Mn10_0  1  0.25000000  0.06367600  0.14599000  1
  Mn  Mn10_1  1  0.25000000  0.06367600  0.64599000  1
  Mn  Mn10_2  1  0.25000000  0.56367600  0.14599000  1
  Mn  Mn10_3  1  0.25000000  0.56367600  0.64599000  1
  Mn  Mn10_4  1  0.75000000  0.06367600  0.14599000  1
  Mn  Mn10_5  1  0.75000000  0.06367600  0.64599000  1
  Mn  Mn10_6  1  0.75000000  0.56367600  0.14599000  1
  Mn  Mn10_7  1  0.75000000  0.56367600  0.64599000  1
  Mn  Mn11_0  1  0.25000000  0.43632400  0.35401000  1
  Mn  Mn11_1  1  0.25000000  0.43632400  0.85401000  1
  Mn  Mn11_2  1  0.25000000  0.93632400  0.35401000  1
  Mn  Mn11_3  1  0.25000000  0.93632400  0.85401000  1
  Mn  Mn11_4  1  0.75000000  0.43632400  0.35401000  1
  Mn  Mn11_5  1  0.75000000  0.43632400  0.85401000  1
  Mn  Mn11_6  1  0.75000000  0.93632400  0.35401000  1
  Mn  Mn11_7  1  0.75000000  0.93632400  0.85401000  1
  Mn  Mn12_0  1  0.25000000  0.18632400  0.39599000  1
  Mn  Mn12_1  1  0.25000000  0.18632400  0.89599000  1
  Mn  Mn12_2  1  0.25000000  0.68632400  0.39599000  1
  Mn  Mn12_3  1  0.25000000  0.68632400  0.89599000  1
  Mn  Mn12_4  1  0.75000000  0.18632400  0.39599000  1
  Mn  Mn12_5  1  0.75000000  0.18632400  0.89599000  1
  Mn  Mn12_6  1  0.75000000  0.68632400  0.39599000  1
  Mn  Mn12_7  1  0.75000000  0.68632400  0.89599000  1
  Mn  Mn13_0  1  0.25000000  0.31367600  0.10401000  1
  Mn  Mn13_1  1  0.25000000  0.31367600  0.60401000  1
  Mn  Mn13_2  1  0.25000000  0.81367600  0.10401000  1
  Mn  Mn13_3  1  0.25000000  0.81367600  0.60401000  1
  Mn  Mn13_4  1  0.75000000  0.31367600  0.10401000  1
  Mn  Mn13_5  1  0.75000000  0.31367600  0.60401000  1
  Mn  Mn13_6  1  0.75000000  0.81367600  0.10401000  1
  Mn  Mn13_7  1  0.75000000  0.81367600  0.60401000  1
  Mn  Mn14_0  1  0.00000000  0.00000000  0.00000000  1
  Mn  Mn14_1  1  0.00000000  0.00000000  0.50000000  1
  Mn  Mn14_2  1  0.00000000  0.50000000  0.00000000  1
  Mn  Mn14_3  1  0.00000000  0.50000000  0.50000000  1
  Mn  Mn14_4  1  0.50000000  0.00000000  0.00000000  1
  Mn  Mn14_5  1  0.50000000  0.00000000  0.50000000  1
  Mn  Mn14_6  1  0.50000000  0.50000000  0.00000000  1
  Mn  Mn14_7  1  0.50000000  0.50000000  0.50000000  1
  Mn  Mn15_0  1  0.00000000  0.25000000  0.25000000  1
  Mn  Mn15_1  1  0.00000000  0.25000000  0.75000000  1
  Mn  Mn15_2  1  0.00000000  0.75000000  0.25000000  1
  Mn  Mn15_3  1  0.00000000  0.75000000  0.75000000  1
  Mn  Mn15_4  1  0.50000000  0.25000000  0.25000000  1
  Mn  Mn15_5  1  0.50000000  0.25000000  0.75000000  1
  Mn  Mn15_6  1  0.50000000  0.75000000  0.25000000  1
  Mn  Mn15_7  1  0.50000000  0.75000000  0.75000000  1
loop_
_geom_bond_atom_site_label_1
_geom_bond_atom_site_label_2
_geom_bond_distance
_geom_bond_site_symmetry_2
Mg0_0 Mn7_0 2.797041 1_555
Mg0_0 Mn7_4 2.797041 1_555
Mg0_0 Mg0_4 2.863526 1_455
Mg0_0 Mg0_4 2.863526 1_555
Mg0_0 Mn5_0 3.056731 1_555
Mg0_0 Mn5_4 3.056731 1_555
Mg0_0 Mn10_0 3.179052 1_555
Mg0_0 Mg8_4 3.191380 1_555
Mg0_0 Mg8_0 3.191380 1_555
Mg0_0 Mg4_4 3.202580 1_555
Mg0_0 Mg4_0 3.202580 1_555
Mg0_0 Mg14_0 3.341141 1_555
Mg0_1 Mn7_1 2.797041 1_555
Mg0_1 Mn7_5 2.797041 1_555
Mg0_1 Mg0_5 2.863526 1_455
Mg0_1 Mg0_5 2.863526 1_555
Mg0_1 Mn5_5 3.056731 1_555
Mg0_1 Mn5_1 3.056731 1_555
Mg0_1 Mn10_1 3.179052 1_555
Mg0_1 Mg8_1 3.191380 1_555
Mg0_1 Mg8_5 3.191380 1_555
Mg0_1 Mg4_1 3.202580 1_555
Mg0_1 Mg4_5 3.202580 1_555
Mg0_1 Mg14_1 3.341141 1_555
Mg0_2 Mn7_2 2.797041 1_555
Mg0_2 Mn7_6 2.797041 1_555
Mg0_2 Mg0_6 2.863526 1_555
Mg0_2 Mg0_6 2.863526 1_455
Mg0_2 Mn5_2 3.056731 1_555
Mg0_2 Mn5_6 3.056731 1_555
Mg0_2 Mn10_2 3.179052 1_555
Mg0_2 Mg8_2 3.191380 1_555
Mg0_2 Mg8_6 3.191380 1_555
Mg0_2 Mg4_6 3.202580 1_555
Mg0_2 Mg4_2 3.202580 1_555
Mg0_2 Mg14_2 3.341141 1_555
Mg0_3 Mn7_3 2.797041 1_555
Mg0_3 Mn7_7 2.797041 1_555
Mg0_3 Mg0_7 2.863526 1_455
Mg0_3 Mg0_7 2.863526 1_555
Mg0_3 Mn5_3 3.056731 1_555
Mg0_3 Mn5_7 3.056731 1_555
Mg0_3 Mn10_3 3.179052 1_555
Mg0_3 Mg8_7 3.191380 1_555
Mg0_3 Mg8_3 3.191380 1_555
Mg0_3 Mg4_3 3.202580 1_555
Mg0_3 Mg4_7 3.202580 1_555
Mg0_3 Mg14_3 3.341141 1_555
Mg0_4 Mn7_0 2.797041 1_655
Mg0_4 Mn7_4 2.797041 1_555
Mg0_4 Mn5_4 3.056731 1_555
Mg0_4 Mn5_0 3.056731 1_655
Mg0_4 Mn10_4 3.179052 1_555
Mg0_4 Mg8_4 3.191380 1_555
Mg0_4 Mg8_0 3.191380 1_655
Mg0_4 Mg4_4 3.202580 1_555
Mg0_4 Mg4_0 3.202580 1_655
Mg0_4 Mg14_4 3.341141 1_555
Mg0_5 Mn7_1 2.797041 1_655
Mg0_5 Mn7_5 2.797041 1_555
Mg0_5 Mn5_5 3.056731 1_555
Mg0_5 Mn5_1 3.056731 1_655
Mg0_5 Mn10_5 3.179052 1_555
Mg0_5 Mg8_5 3.191380 1_555
Mg0_5 Mg8_1 3.191380 1_655
Mg0_5 Mg4_1 3.202580 1_655
Mg0_5 Mg4_5 3.202580 1_555
Mg0_5 Mg14_5 3.341141 1_555
Mg0_6 Mn7_2 2.797041 1_655
Mg0_6 Mn7_6 2.797041 1_555
Mg0_6 Mn5_2 3.056731 1_655
Mg0_6 Mn5_6 3.056731 1_555
Mg0_6 Mn10_6 3.179052 1_555
Mg0_6 Mg8_2 3.191380 1_655
Mg0_6 Mg8_6 3.191380 1_555
Mg0_6 Mg4_2 3.202580 1_655
Mg0_6 Mg4_6 3.202580 1_555
Mg0_6 Mg14_6 3.341141 1_555
Mg0_7 Mn7_7 2.797041 1_555
Mg0_7 Mn7_3 2.797041 1_655
Mg0_7 Mn5_3 3.056731 1_655
Mg0_7 Mn5_7 3.056731 1_555
Mg0_7 Mn10_7 3.179052 1_555
Mg0_7 Mg8_3 3.191380 1_655
Mg0_7 Mg8_7 3.191380 1_555
Mg0_7 Mg4_7 3.202580 1_555
Mg0_7 Mg4_3 3.202580 1_655
Mg0_7 Mg14_7 3.341141 1_555
Mg1_0 Mn6_0 2.797041 1_555
Mg1_0 Mn6_4 2.797041 1_555
Mg1_0 Mg1_4 2.863526 1_455
Mg1_0 Mg1_4 2.863526 1_555
Mg1_0 Mn4_0 3.056731 1_555
Mg1_0 Mn4_4 3.056731 1_555
Mg1_0 Mn11_0 3.179052 1_555
Mg1_0 Mg9_0 3.191380 1_555
Mg1_0 Mg9_4 3.191380 1_555
Mg1_0 Mg5_0 3.202580 1_555
Mg1_0 Mg5_4 3.202580 1_555
Mg1_1 Mn6_1 2.797041 1_555
Mg1_1 Mn6_5 2.797041 1_555
Mg1_1 Mg1_5 2.863526 1_455
Mg1_1 Mg1_5 2.863526 1_555
Mg1_1 Mn4_1 3.056731 1_555
Mg1_1 Mn4_5 3.056731 1_555
Mg1_1 Mn11_1 3.179052 1_555
Mg1_1 Mg9_5 3.191380 1_555
Mg1_1 Mg9_1 3.191380 1_555
Mg1_1 Mg5_1 3.202580 1_555
Mg1_1 Mg5_5 3.202580 1_555
Mg1_2 Mn6_2 2.797041 1_555
Mg1_2 Mn6_6 2.797041 1_555
Mg1_2 Mg1_6 2.863526 1_455
Mg1_2 Mg1_6 2.863526 1_555
Mg1_2 Mn4_6 3.056731 1_555
Mg1_2 Mn4_2 3.056731 1_555
Mg1_2 Mn11_2 3.179052 1_555
Mg1_2 Mg9_2 3.191380 1_555
Mg1_2 Mg9_6 3.191380 1_555
Mg1_2 Mg5_2 3.202580 1_555
Mg1_2 Mg5_6 3.202580 1_555
Mg1_3 Mn6_7 2.797041 1_555
Mg1_3 Mn6_3 2.797041 1_555
Mg1_3 Mg1_7 2.863526 1_455
Mg1_3 Mg1_7 2.863526 1_555
Mg1_3 Mn4_3 3.056731 1_555
Mg1_3 Mn4_7 3.056731 1_555
Mg1_3 Mn11_3 3.179052 1_555
Mg1_3 Mg9_3 3.191380 1_555
Mg1_3 Mg9_7 3.191380 1_555
Mg1_3 Mg5_7 3.202580 1_555
Mg1_3 Mg5_3 3.202580 1_555
Mg1_4 Mn6_0 2.797041 1_655
Mg1_4 Mn6_4 2.797041 1_555
Mg1_4 Mn4_0 3.056731 1_655
Mg1_4 Mn4_4 3.056731 1_555
Mg1_4 Mn11_4 3.179052 1_555
Mg1_4 Mg9_0 3.191380 1_655
Mg1_4 Mg9_4 3.191380 1_555
Mg1_4 Mg5_0 3.202580 1_655
Mg1_4 Mg5_4 3.202580 1_555
Mg1_5 Mn6_1 2.797041 1_655
Mg1_5 Mn6_5 2.797041 1_555
Mg1_5 Mn4_5 3.056731 1_555
Mg1_5 Mn4_1 3.056731 1_655
Mg1_5 Mn11_5 3.179052 1_555
Mg1_5 Mg9_5 3.191380 1_555
Mg1_5 Mg9_1 3.191380 1_655
Mg1_5 Mg5_1 3.202580 1_655
Mg1_5 Mg5_5 3.202580 1_555
Mg1_6 Mn6_2 2.797041 1_655
Mg1_6 Mn6_6 2.797041 1_555
Mg1_6 Mn4_2 3.056731 1_655
Mg1_6 Mn4_6 3.056731 1_555
Mg1_6 Mn11_6 3.179052 1_555
Mg1_6 Mg9_6 3.191380 1_555
Mg1_6 Mg9_2 3.191380 1_655
Mg1_6 Mg5_2 3.202580 1_655
Mg1_6 Mg5_6 3.202580 1_555
Mg1_7 Mn6_7 2.797041 1_555
Mg1_7 Mn6_3 2.797041 1_655
Mg1_7 Mn4_7 3.056731 1_555
Mg1_7 Mn4_3 3.056731 1_655
Mg1_7 Mn11_7 3.179052 1_555
Mg1_7 Mg9_3 3.191380 1_655
Mg1_7 Mg9_7 3.191380 1_555
Mg1_7 Mg5_7 3.202580 1_555
Mg1_7 Mg5_3 3.202580 1_655
Mg2_0 Mn9_2 2.797041 1_545
Mg2_0 Mn9_6 2.797041 1_545
Mg2_0 Mg2_4 2.863526 1_455
Mg2_0 Mg2_4 2.863526 1_555
Mg2_0 Mn3_2 3.056731 1_545
Mg2_0 Mn3_6 3.056731 1_545
Mg2_0 Mn12_0 3.179052 1_555
Mg2_0 Mg6_0 3.202580 1_555
Mg2_0 Mg6_4 3.202580 1_555
Mg2_1 Mn9_3 2.797041 1_545
Mg2_1 Mn9_7 2.797041 1_545
Mg2_1 Mg2_5 2.863526 1_555
Mg2_1 Mg2_5 2.863526 1_455
Mg2_1 Mn3_7 3.056731 1_545
Mg2_1 Mn3_3 3.056731 1_545
Mg2_1 Mn12_1 3.179052 1_555
Mg2_1 Mg6_5 3.202580 1_555
Mg2_1 Mg6_1 3.202580 1_555
Mg2_2 Mn9_0 2.797041 1_555
Mg2_2 Mn9_4 2.797041 1_555
Mg2_2 Mg2_6 2.863526 1_455
Mg2_2 Mg2_6 2.863526 1_555
Mg2_2 Mn3_4 3.056731 1_555
Mg2_2 Mn3_0 3.056731 1_555
Mg2_2 Mn12_2 3.179052 1_555
Mg2_2 Mg6_6 3.202580 1_555
Mg2_2 Mg6_2 3.202580 1_555
Mg2_3 Mn9_1 2.797041 1_555
Mg2_3 Mn9_5 2.797041 1_555
Mg2_3 Mg2_7 2.863526 1_555
Mg2_3 Mg2_7 2.863526 1_455
Mg2_3 Mn3_1 3.056731 1_555
Mg2_3 Mn3_5 3.056731 1_555
Mg2_3 Mn12_3 3.179052 1_555
Mg2_3 Mg6_3 3.202580 1_555
Mg2_3 Mg6_7 3.202580 1_555
Mg2_4 Mn9_6 2.797041 1_545
Mg2_4 Mn9_2 2.797041 1_645
Mg2_4 Mn3_6 3.056731 1_545
Mg2_4 Mn3_2 3.056731 1_645
Mg2_4 Mn12_4 3.179052 1_555
Mg2_4 Mg6_0 3.202580 1_655
Mg2_4 Mg6_4 3.202580 1_555
Mg2_5 Mn9_3 2.797041 1_645
Mg2_5 Mn9_7 2.797041 1_545
Mg2_5 Mn3_3 3.056731 1_645
Mg2_5 Mn3_7 3.056731 1_545
Mg2_5 Mn12_5 3.179052 1_555
Mg2_5 Mg6_1 3.202580 1_655
Mg2_5 Mg6_5 3.202580 1_555
Mg2_6 Mn9_4 2.797041 1_555
Mg2_6 Mn9_0 2.797041 1_655
Mg2_6 Mn3_4 3.056731 1_555
Mg2_6 Mn3_0 3.056731 1_655
Mg2_6 Mn12_6 3.179052 1_555
Mg2_6 Mg6_6 3.202580 1_555
Mg2_6 Mg6_2 3.202580 1_655
Mg2_7 Mn9_1 2.797041 1_655
Mg2_7 Mn9_5 2.797041 1_555
Mg2_7 Mn3_1 3.056731 1_655
Mg2_7 Mn3_5 3.056731 1_555
Mg2_7 Mn12_7 3.179052 1_555
Mg2_7 Mg6_7 3.202580 1_555
Mg2_7 Mg6_3 3.202580 1_655
Mg3_0 Mn8_2 2.797041 1_555
Mg3_0 Mn8_6 2.797041 1_555
Mg3_0 Mg3_4 2.863526 1_455
Mg3_0 Mg3_4 2.863526 1_555
Mg3_0 Mn2_2 3.056731 1_555
Mg3_0 Mn2_6 3.056731 1_555
Mg3_0 Mn13_0 3.179052 1_555
Mg3_0 Mg7_4 3.202580 1_555
Mg3_0 Mg7_0 3.202580 1_555
Mg3_1 Mn8_7 2.797041 1_555
Mg3_1 Mn8_3 2.797041 1_555
Mg3_1 Mg3_5 2.863526 1_455
Mg3_1 Mg3_5 2.863526 1_555
Mg3_1 Mn2_3 3.056731 1_555
Mg3_1 Mn2_7 3.056731 1_555
Mg3_1 Mn13_1 3.179052 1_555
Mg3_1 Mg7_5 3.202580 1_555
Mg3_1 Mg7_1 3.202580 1_555
Mg3_2 Mn8_0 2.797041 1_565
Mg3_2 Mn8_4 2.797041 1_565
Mg3_2 Mg3_6 2.863526 1_555
Mg3_2 Mg3_6 2.863526 1_455
Mg3_2 Mn2_4 3.056731 1_565
Mg3_2 Mn2_0 3.056731 1_565
Mg3_2 Mn13_2 3.179052 1_555
Mg3_2 Mg7_6 3.202580 1_555
Mg3_2 Mg7_2 3.202580 1_555
Mg3_3 Mn8_5 2.797041 1_565
Mg3_3 Mn8_1 2.797041 1_565
Mg3_3 Mg3_7 2.863526 1_455
Mg3_3 Mg3_7 2.863526 1_555
Mg3_3 Mn2_1 3.056731 1_565
Mg3_3 Mn2_5 3.056731 1_565
Mg3_3 Mn13_3 3.179052 1_555
Mg3_3 Mg7_3 3.202580 1_555
Mg3_3 Mg7_7 3.202580 1_555
Mg3_4 Mn8_6 2.797041 1_555
Mg3_4 Mn8_2 2.797041 1_655
Mg3_4 Mn2_2 3.056731 1_655
Mg3_4 Mn2_6 3.056731 1_555
Mg3_4 Mn13_4 3.179052 1_555
Mg3_4 Mg7_4 3.202580 1_555
Mg3_4 Mg7_0 3.202580 1_655
Mg3_5 Mn8_7 2.797041 1_555
Mg3_5 Mn8_3 2.797041 1_655
Mg3_5 Mn2_3 3.056731 1_655
Mg3_5 Mn2_7 3.056731 1_555
Mg3_5 Mn13_5 3.179052 1_555
Mg3_5 Mg7_5 3.202580 1_555
Mg3_5 Mg7_1 3.202580 1_655
Mg3_6 Mn8_0 2.797041 1_665
Mg3_6 Mn8_4 2.797041 1_565
Mg3_6 Mn2_4 3.056731 1_565
Mg3_6 Mn2_0 3.056731 1_665
Mg3_6 Mn13_6 3.179052 1_555
Mg3_6 Mg7_6 3.202580 1_555
Mg3_6 Mg7_2 3.202580 1_655
Mg3_7 Mn8_1 2.797041 1_665
Mg3_7 Mn8_5 2.797041 1_565
Mg3_7 Mn2_1 3.056731 1_665
Mg3_7 Mn2_5 3.056731 1_565
Mg3_7 Mn13_7 3.179052 1_555
Mg3_7 Mg7_3 3.202580 1_655
Mg3_7 Mg7_7 3.202580 1_555
Mg4_0 Mn5_0 2.763165 1_555
Mg4_0 Mn2_0 2.767136 1_555
Mg4_0 Mg4_4 2.863526 1_455
Mg4_0 Mg4_4 2.863526 1_555
Mg4_0 Mn13_0 3.003669 1_555
Mg4_0 Mn13_4 3.003669 1_455
Mg4_0 Mn10_4 3.031267 1_455
Mg4_0 Mn10_0 3.031267 1_555
Mg4_1 Mn5_1 2.763165 1_555
Mg4_1 Mn2_1 2.767136 1_555
Mg4_1 Mg4_5 2.863526 1_555
Mg4_1 Mg4_5 2.863526 1_455
Mg4_1 Mn13_1 3.003669 1_555
Mg4_1 Mn13_5 3.003669 1_455
Mg4_1 Mn10_1 3.031267 1_555
Mg4_1 Mn10_5 3.031267 1_455
Mg4_2 Mn5_2 2.763165 1_555
Mg4_2 Mn2_2 2.767136 1_555
Mg4_2 Mg4_6 2.863526 1_555
Mg4_2 Mg4_6 2.863526 1_455
Mg4_2 Mn13_2 3.003669 1_555
Mg4_2 Mn13_6 3.003669 1_455
Mg4_2 Mn10_2 3.031267 1_555
Mg4_2 Mn10_6 3.031267 1_455
Mg4_3 Mn5_3 2.763165 1_555
Mg4_3 Mn2_3 2.767136 1_555
Mg4_3 Mg4_7 2.863526 1_455
Mg4_3 Mg4_7 2.863526 1_555
Mg4_3 Mn13_3 3.003669 1_555
Mg4_3 Mn13_7 3.003669 1_455
Mg4_3 Mn10_7 3.031267 1_455
Mg4_3 Mn10_3 3.031267 1_555
Mg4_4 Mn5_4 2.763165 1_555
Mg4_4 Mn2_4 2.767136 1_555
Mg4_4 Mn13_4 3.003669 1_555
Mg4_4 Mn13_0 3.003669 1_555
Mg4_4 Mn10_0 3.031267 1_555
Mg4_4 Mn10_4 3.031267 1_555
Mg4_5 Mn5_5 2.763165 1_555
Mg4_5 Mn2_5 2.767136 1_555
Mg4_5 Mn13_1 3.003669 1_555
Mg4_5 Mn13_5 3.003669 1_555
Mg4_5 Mn10_5 3.031267 1_555
Mg4_5 Mn10_1 3.031267 1_555
Mg4_6 Mn5_6 2.763165 1_555
Mg4_6 Mn2_6 2.767136 1_555
Mg4_6 Mn13_6 3.003669 1_555
Mg4_6 Mn13_2 3.003669 1_555
Mg4_6 Mn10_2 3.031267 1_555
Mg4_6 Mn10_6 3.031267 1_555
Mg4_7 Mn5_7 2.763165 1_555
Mg4_7 Mn2_7 2.767136 1_555
Mg4_7 Mn13_7 3.003669 1_555
Mg4_7 Mn13_3 3.003669 1_555
Mg4_7 Mn10_3 3.031267 1_555
Mg4_7 Mn10_7 3.031267 1_555
Mg5_0 Mn4_0 2.763165 1_555
Mg5_0 Mn3_0 2.767136 1_555
Mg5_0 Mg5_4 2.863526 1_555
Mg5_0 Mg5_4 2.863526 1_455
Mg5_0 Mn12_4 3.003669 1_455
Mg5_0 Mn12_0 3.003669 1_555
Mg5_0 Mn11_0 3.031267 1_555
Mg5_0 Mn11_4 3.031267 1_455
Mg5_1 Mn4_1 2.763165 1_555
Mg5_1 Mn3_1 2.767136 1_555
Mg5_1 Mg5_5 2.863526 1_555
Mg5_1 Mg5_5 2.863526 1_455
Mg5_1 Mn12_1 3.003669 1_555
Mg5_1 Mn12_5 3.003669 1_455
Mg5_1 Mn11_1 3.031267 1_555
Mg5_1 Mn11_5 3.031267 1_455
Mg5_2 Mn4_2 2.763165 1_555
Mg5_2 Mn3_2 2.767136 1_555
Mg5_2 Mg5_6 2.863526 1_455
Mg5_2 Mg5_6 2.863526 1_555
Mg5_2 Mn12_2 3.003669 1_555
Mg5_2 Mn12_6 3.003669 1_455
Mg5_2 Mn11_6 3.031267 1_455
Mg5_2 Mn11_2 3.031267 1_555
Mg5_3 Mn4_3 2.763165 1_555
Mg5_3 Mn3_3 2.767136 1_555
Mg5_3 Mg5_7 2.863526 1_555
Mg5_3 Mg5_7 2.863526 1_455
Mg5_3 Mn12_7 3.003669 1_455
Mg5_3 Mn12_3 3.003669 1_555
Mg5_3 Mn11_7 3.031267 1_455
Mg5_3 Mn11_3 3.031267 1_555
Mg5_4 Mn4_4 2.763165 1_555
Mg5_4 Mn3_4 2.767136 1_555
Mg5_4 Mn12_4 3.003669 1_555
Mg5_4 Mn12_0 3.003669 1_555
Mg5_4 Mn11_0 3.031267 1_555
Mg5_4 Mn11_4 3.031267 1_555
Mg5_5 Mn4_5 2.763165 1_555
Mg5_5 Mn3_5 2.767136 1_555
Mg5_5 Mn12_5 3.003669 1_555
Mg5_5 Mn12_1 3.003669 1_555
Mg5_5 Mn11_1 3.031267 1_555
Mg5_5 Mn11_5 3.031267 1_555
Mg5_6 Mn4_6 2.763165 1_555
Mg5_6 Mn3_6 2.767136 1_555
Mg5_6 Mn12_6 3.003669 1_555
Mg5_6 Mn12_2 3.003669 1_555
Mg5_6 Mn11_2 3.031267 1_555
Mg5_6 Mn11_6 3.031267 1_555
Mg5_7 Mn4_7 2.763165 1_555
Mg5_7 Mn3_7 2.767136 1_555
Mg5_7 Mn12_3 3.003669 1_555
Mg5_7 Mn12_7 3.003669 1_555
Mg5_7 Mn11_3 3.031267 1_555
Mg5_7 Mn11_7 3.031267 1_555
Mg6_0 Mn3_2 2.763165 1_545
Mg6_0 Mn4_0 2.767136 1_555
Mg6_0 Mg6_4 2.863526 1_555
Mg6_0 Mg6_4 2.863526 1_455
Mg6_0 Mn11_6 3.003669 1_445
Mg6_0 Mn11_2 3.003669 1_545
Mg6_0 Mn12_4 3.031267 1_455
Mg6_0 Mn12_0 3.031267 1_555
Mg6_1 Mn3_3 2.763165 1_545
Mg6_1 Mn4_1 2.767136 1_555
Mg6_1 Mg6_5 2.863526 1_555
Mg6_1 Mg6_5 2.863526 1_455
Mg6_1 Mn11_7 3.003669 1_445
Mg6_1 Mn11_3 3.003669 1_545
Mg6_1 Mn12_5 3.031267 1_455
Mg6_1 Mn12_1 3.031267 1_555
Mg6_2 Mn3_0 2.763165 1_555
Mg6_2 Mn4_2 2.767136 1_555
Mg6_2 Mg6_6 2.863526 1_555
Mg6_2 Mg6_6 2.863526 1_455
Mg6_2 Mn11_0 3.003669 1_555
Mg6_2 Mn11_4 3.003669 1_455
Mg6_2 Mn12_2 3.031267 1_555
Mg6_2 Mn12_6 3.031267 1_455
Mg6_3 Mn3_1 2.763165 1_555
Mg6_3 Mn4_3 2.767136 1_555
Mg6_3 Mg6_7 2.863526 1_555
Mg6_3 Mg6_7 2.863526 1_455
Mg6_3 Mn11_1 3.003669 1_555
Mg6_3 Mn11_5 3.003669 1_455
Mg6_3 Mn12_3 3.031267 1_555
Mg6_3 Mn12_7 3.031267 1_455
Mg6_4 Mn3_6 2.763165 1_545
Mg6_4 Mn4_4 2.767136 1_555
Mg6_4 Mn11_6 3.003669 1_545
Mg6_4 Mn11_2 3.003669 1_545
Mg6_4 Mn12_4 3.031267 1_555
Mg6_4 Mn12_0 3.031267 1_555
Mg6_5 Mn3_7 2.763165 1_545
Mg6_5 Mn4_5 2.767136 1_555
Mg6_5 Mn11_7 3.003669 1_545
Mg6_5 Mn11_3 3.003669 1_545
Mg6_5 Mn12_1 3.031267 1_555
Mg6_5 Mn12_5 3.031267 1_555
Mg6_6 Mn3_4 2.763165 1_555
Mg6_6 Mn4_6 2.767136 1_555
Mg6_6 Mn11_0 3.003669 1_555
Mg6_6 Mn11_4 3.003669 1_555
Mg6_6 Mn12_6 3.031267 1_555
Mg6_6 Mn12_2 3.031267 1_555
Mg6_7 Mn3_5 2.763165 1_555
Mg6_7 Mn4_7 2.767136 1_555
Mg6_7 Mn11_1 3.003669 1_555
Mg6_7 Mn11_5 3.003669 1_555
Mg6_7 Mn12_3 3.031267 1_555
Mg6_7 Mn12_7 3.031267 1_555
Mg7_0 Mn2_2 2.763165 1_555
Mg7_0 Mn5_0 2.767136 1_555
Mg7_0 Mg7_4 2.863526 1_555
Mg7_0 Mg7_4 2.863526 1_455
Mg7_0 Mn10_2 3.003669 1_555
Mg7_0 Mn10_6 3.003669 1_455
Mg7_0 Mn13_0 3.031267 1_555
Mg7_0 Mn13_4 3.031267 1_455
Mg7_1 Mn2_3 2.763165 1_555
Mg7_1 Mn5_1 2.767136 1_555
Mg7_1 Mg7_5 2.863526 1_555
Mg7_1 Mg7_5 2.863526 1_455
Mg7_1 Mn10_3 3.003669 1_555
Mg7_1 Mn10_7 3.003669 1_455
Mg7_1 Mn13_1 3.031267 1_555
Mg7_1 Mn13_5 3.031267 1_455
Mg7_2 Mn2_0 2.763165 1_565
Mg7_2 Mn5_2 2.767136 1_555
Mg7_2 Mg7_6 2.863526 1_455
Mg7_2 Mg7_6 2.863526 1_555
Mg7_2 Mn10_0 3.003669 1_565
Mg7_2 Mn10_4 3.003669 1_465
Mg7_2 Mn13_2 3.031267 1_555
Mg7_2 Mn13_6 3.031267 1_455
Mg7_3 Mn2_1 2.763165 1_565
Mg7_3 Mn5_3 2.767136 1_555
Mg7_3 Mg7_7 2.863526 1_555
Mg7_3 Mg7_7 2.863526 1_455
Mg7_3 Mn10_1 3.003669 1_565
Mg7_3 Mn10_5 3.003669 1_465
Mg7_3 Mn13_3 3.031267 1_555
Mg7_3 Mn13_7 3.031267 1_455
Mg7_4 Mn2_6 2.763165 1_555
Mg7_4 Mn5_4 2.767136 1_555
Mg7_4 Mn10_6 3.003669 1_555
Mg7_4 Mn10_2 3.003669 1_555
Mg7_4 Mn13_0 3.031267 1_555
Mg7_4 Mn13_4 3.031267 1_555
Mg7_5 Mn2_7 2.763165 1_555
Mg7_5 Mn5_5 2.767136 1_555
Mg7_5 Mn10_3 3.003669 1_555
Mg7_5 Mn10_7 3.003669 1_555
Mg7_5 Mn13_1 3.031267 1_555
Mg7_5 Mn13_5 3.031267 1_555
Mg7_6 Mn2_4 2.763165 1_565
Mg7_6 Mn5_6 2.767136 1_555
Mg7_6 Mn10_0 3.003669 1_565
Mg7_6 Mn10_4 3.003669 1_565
Mg7_6 Mn13_2 3.031267 1_555
Mg7_6 Mn13_6 3.031267 1_555
Mg7_7 Mn2_5 2.763165 1_565
Mg7_7 Mn5_7 2.767136 1_555
Mg7_7 Mn10_5 3.003669 1_565
Mg7_7 Mn10_1 3.003669 1_565
Mg7_7 Mn13_3 3.031267 1_555
Mg7_7 Mn13_7 3.031267 1_555
Mg8_0 Mg8_4 2.863526 1_455
Mg8_0 Mg8_4 2.863526 1_555
Mg8_0 Mn10_4 2.910829 1_455
Mg8_0 Mn10_0 2.910829 1_555
Mg8_0 Mn0_0 2.955194 1_555
Mg8_0 Mn0_4 2.955194 1_455
Mg8_1 Mg8_5 2.863526 1_455
Mg8_1 Mg8_5 2.863526 1_555
Mg8_1 Mn10_1 2.910829 1_555
Mg8_1 Mn10_5 2.910829 1_455
Mg8_1 Mn0_5 2.955194 1_455
Mg8_1 Mn0_1 2.955194 1_555
Mg8_2 Mg8_6 2.863526 1_555
Mg8_2 Mg8_6 2.863526 1_455
Mg8_2 Mn10_2 2.910829 1_555
Mg8_2 Mn10_6 2.910829 1_455
Mg8_2 Mn0_6 2.955194 1_455
Mg8_2 Mn0_2 2.955194 1_555
Mg8_3 Mg8_7 2.863526 1_555
Mg8_3 Mg8_7 2.863526 1_455
Mg8_3 Mn10_3 2.910829 1_555
Mg8_3 Mn10_7 2.910829 1_455
Mg8_3 Mn0_3 2.955194 1_555
Mg8_3 Mn0_7 2.955194 1_455
Mg8_4 Mn10_4 2.910829 1_555
Mg8_4 Mn10_0 2.910829 1_555
Mg8_4 Mn0_4 2.955194 1_555
Mg8_4 Mn0_0 2.955194 1_555
Mg8_5 Mn10_1 2.910829 1_555
Mg8_5 Mn10_5 2.910829 1_555
Mg8_5 Mn0_1 2.955194 1_555
Mg8_5 Mn0_5 2.955194 1_555
Mg8_6 Mn10_2 2.910829 1_555
Mg8_6 Mn10_6 2.910829 1_555
Mg8_6 Mn0_6 2.955194 1_555
Mg8_6 Mn0_2 2.955194 1_555
Mg8_7 Mn10_3 2.910829 1_555
Mg8_7 Mn10_7 2.910829 1_555
Mg8_7 Mn0_3 2.955194 1_555
Mg8_7 Mn0_7 2.955194 1_555
Mg9_0 Mg9_4 2.863526 1_555
Mg9_0 Mg9_4 2.863526 1_455
Mg9_0 Mn11_0 2.910829 1_555
Mg9_0 Mn11_4 2.910829 1_455
Mg9_0 Mn0_2 2.955194 1_555
Mg9_0 Mn0_6 2.955194 1_455
Mg9_1 Mg9_5 2.863526 1_555
Mg9_1 Mg9_5 2.863526 1_455
Mg9_1 Mn11_5 2.910829 1_455
Mg9_1 Mn11_1 2.910829 1_555
Mg9_1 Mn0_3 2.955194 1_555
Mg9_1 Mn0_7 2.955194 1_455
Mg9_2 Mg9_6 2.863526 1_455
Mg9_2 Mg9_6 2.863526 1_555
Mg9_2 Mn11_2 2.910829 1_555
Mg9_2 Mn11_6 2.910829 1_455
Mg9_2 Mn0_4 2.955194 1_465
Mg9_2 Mn0_0 2.955194 1_565
Mg9_3 Mg9_7 2.863526 1_555
Mg9_3 Mg9_7 2.863526 1_455
Mg9_3 Mn11_7 2.910829 1_455
Mg9_3 Mn11_3 2.910829 1_555
Mg9_3 Mn0_5 2.955194 1_465
Mg9_3 Mn0_1 2.955194 1_565
Mg9_4 Mn11_0 2.910829 1_555
Mg9_4 Mn11_4 2.910829 1_555
Mg9_4 Mn0_2 2.955194 1_555
Mg9_4 Mn0_6 2.955194 1_555
Mg9_5 Mn11_5 2.910829 1_555
Mg9_5 Mn11_1 2.910829 1_555
Mg9_5 Mn0_3 2.955194 1_555
Mg9_5 Mn0_7 2.955194 1_555
Mg9_6 Mn11_2 2.910829 1_555
Mg9_6 Mn11_6 2.910829 1_555
Mg9_6 Mn0_0 2.955194 1_565
Mg9_6 Mn0_4 2.955194 1_565
Mg9_7 Mn11_7 2.910829 1_555
Mg9_7 Mn11_3 2.910829 1_555
Mg9_7 Mn0_5 2.955194 1_565
Mg9_7 Mn0_1 2.955194 1_565
Mg10_0 Mg10_4 2.863526 1_555
Mg10_0 Mg10_4 2.863526 1_455
Mg10_0 Mn12_0 2.910829 1_555
Mg10_0 Mn12_4 2.910829 1_455
Mg10_0 Mn1_5 2.955194 1_455
Mg10_0 Mn1_1 2.955194 1_555
Mg10_0 Mg17_0 3.108973 1_555
Mg10_0 Mg17_4 3.108973 1_455
Mg10_0 Mg12_1 3.143393 1_555
Mg10_0 Mg12_5 3.143393 1_455
Mg10_0 Mg2_4 3.191380 1_455
Mg10_0 Mg2_0 3.191380 1_555
Mg10_1 Mg10_5 2.863526 1_455
Mg10_1 Mg10_5 2.863526 1_555
Mg10_1 Mn12_1 2.910829 1_555
Mg10_1 Mn12_5 2.910829 1_455
Mg10_1 Mn1_0 2.955194 1_556
Mg10_1 Mn1_4 2.955194 1_456
Mg10_1 Mg17_5 3.108973 1_455
Mg10_1 Mg17_1 3.108973 1_555
Mg10_1 Mg12_4 3.143393 1_456
Mg10_1 Mg12_0 3.143393 1_556
Mg10_1 Mg2_1 3.191380 1_555
Mg10_1 Mg2_5 3.191380 1_455
Mg10_2 Mg10_6 2.863526 1_555
Mg10_2 Mg10_6 2.863526 1_455
Mg10_2 Mn12_2 2.910829 1_555
Mg10_2 Mn12_6 2.910829 1_455
Mg10_2 Mn1_7 2.955194 1_455
Mg10_2 Mn1_3 2.955194 1_555
Mg10_2 Mg17_2 3.108973 1_555
Mg10_2 Mg17_6 3.108973 1_455
Mg10_2 Mg12_3 3.143393 1_555
Mg10_2 Mg12_7 3.143393 1_455
Mg10_2 Mg2_2 3.191380 1_555
Mg10_2 Mg2_6 3.191380 1_455
Mg10_3 Mg10_7 2.863526 1_555
Mg10_3 Mg10_7 2.863526 1_455
Mg10_3 Mn12_3 2.910829 1_555
Mg10_3 Mn12_7 2.910829 1_455
Mg10_3 Mn1_2 2.955194 1_556
Mg10_3 Mn1_6 2.955194 1_456
Mg10_3 Mg17_7 3.108973 1_455
Mg10_3 Mg17_3 3.108973 1_555
Mg10_3 Mg12_6 3.143393 1_456
Mg10_3 Mg12_2 3.143393 1_556
Mg10_3 Mg2_3 3.191380 1_555
Mg10_3 Mg2_7 3.191380 1_455
Mg10_4 Mn12_0 2.910829 1_555
Mg10_4 Mn12_4 2.910829 1_555
Mg10_4 Mn1_1 2.955194 1_555
Mg10_4 Mn1_5 2.955194 1_555
Mg10_4 Mg17_0 3.108973 1_555
Mg10_4 Mg17_4 3.108973 1_555
Mg10_4 Mg12_1 3.143393 1_555
Mg10_4 Mg12_5 3.143393 1_555
Mg10_4 Mg2_4 3.191380 1_555
Mg10_4 Mg2_0 3.191380 1_555
Mg10_5 Mn12_1 2.910829 1_555
Mg10_5 Mn12_5 2.910829 1_555
Mg10_5 Mn1_0 2.955194 1_556
Mg10_5 Mn1_4 2.955194 1_556
Mg10_5 Mg17_1 3.108973 1_555
Mg10_5 Mg17_5 3.108973 1_555
Mg10_5 Mg12_4 3.143393 1_556
Mg10_5 Mg12_0 3.143393 1_556
Mg10_5 Mg2_1 3.191380 1_555
Mg10_5 Mg2_5 3.191380 1_555
Mg10_6 Mn12_2 2.910829 1_555
Mg10_6 Mn12_6 2.910829 1_555
Mg10_6 Mn1_7 2.955194 1_555
Mg10_6 Mn1_3 2.955194 1_555
Mg10_6 Mg17_6 3.108973 1_555
Mg10_6 Mg17_2 3.108973 1_555
Mg10_6 Mg12_7 3.143393 1_555
Mg10_6 Mg12_3 3.143393 1_555
Mg10_6 Mg2_6 3.191380 1_555
Mg10_6 Mg2_2 3.191380 1_555
Mg10_7 Mn12_3 2.910829 1_555
Mg10_7 Mn12_7 2.910829 1_555
Mg10_7 Mn1_2 2.955194 1_556
Mg10_7 Mn1_6 2.955194 1_556
Mg10_7 Mg17_3 3.108973 1_555
Mg10_7 Mg17_7 3.108973 1_555
Mg10_7 Mg12_6 3.143393 1_556
Mg10_7 Mg12_2 3.143393 1_556
Mg10_7 Mg2_3 3.191380 1_555
Mg10_7 Mg2_7 3.191380 1_555
Mg11_0 Mg11_4 2.863526 1_455
Mg11_0 Mg11_4 2.863526 1_555
Mg11_0 Mn13_4 2.910829 1_455
Mg11_0 Mn13_0 2.910829 1_555
Mg11_0 Mn1_0 2.955194 1_555
Mg11_0 Mn1_4 2.955194 1_455
Mg11_0 Mg16_4 3.108973 1_455
Mg11_0 Mg16_0 3.108973 1_555
Mg11_0 Mg13_5 3.143393 1_454
Mg11_0 Mg13_1 3.143393 1_554
Mg11_0 Mg3_4 3.191380 1_455
Mg11_0 Mg3_0 3.191380 1_555
Mg11_1 Mg11_5 2.863526 1_455
Mg11_1 Mg11_5 2.863526 1_555
Mg11_1 Mn13_1 2.910829 1_555
Mg11_1 Mn13_5 2.910829 1_455
Mg11_1 Mn1_5 2.955194 1_455
Mg11_1 Mn1_1 2.955194 1_555
Mg11_1 Mg16_1 3.108973 1_555
Mg11_1 Mg16_5 3.108973 1_455
Mg11_1 Mg13_4 3.143393 1_455
Mg11_1 Mg13_0 3.143393 1_555
Mg11_1 Mg3_5 3.191380 1_455
Mg11_1 Mg3_1 3.191380 1_555
Mg11_2 Mg11_6 2.863526 1_455
Mg11_2 Mg11_6 2.863526 1_555
Mg11_2 Mn13_2 2.910829 1_555
Mg11_2 Mn13_6 2.910829 1_455
Mg11_2 Mn1_2 2.955194 1_555
Mg11_2 Mn1_6 2.955194 1_455
Mg11_2 Mg16_2 3.108973 1_555
Mg11_2 Mg16_6 3.108973 1_455
Mg11_2 Mg13_7 3.143393 1_454
Mg11_2 Mg13_3 3.143393 1_554
Mg11_2 Mg3_6 3.191380 1_455
Mg11_2 Mg3_2 3.191380 1_555
Mg11_3 Mg11_7 2.863526 1_555
Mg11_3 Mg11_7 2.863526 1_455
Mg11_3 Mn13_3 2.910829 1_555
Mg11_3 Mn13_7 2.910829 1_455
Mg11_3 Mn1_7 2.955194 1_455
Mg11_3 Mn1_3 2.955194 1_555
Mg11_3 Mg16_3 3.108973 1_555
Mg11_3 Mg16_7 3.108973 1_455
Mg11_3 Mg13_2 3.143393 1_555
Mg11_3 Mg13_6 3.143393 1_455
Mg11_3 Mg3_3 3.191380 1_555
Mg11_3 Mg3_7 3.191380 1_455
Mg11_4 Mn13_4 2.910829 1_555
Mg11_4 Mn13_0 2.910829 1_555
Mg11_4 Mn1_4 2.955194 1_555
Mg11_4 Mn1_0 2.955194 1_555
Mg11_4 Mg16_0 3.108973 1_555
Mg11_4 Mg16_4 3.108973 1_555
Mg11_4 Mg13_5 3.143393 1_554
Mg11_4 Mg13_1 3.143393 1_554
Mg11_4 Mg3_0 3.191380 1_555
Mg11_4 Mg3_4 3.191380 1_555
Mg11_5 Mn13_1 2.910829 1_555
Mg11_5 Mn13_5 2.910829 1_555
Mg11_5 Mn1_1 2.955194 1_555
Mg11_5 Mn1_5 2.955194 1_555
Mg11_5 Mg16_1 3.108973 1_555
Mg11_5 Mg16_5 3.108973 1_555
Mg11_5 Mg13_4 3.143393 1_555
Mg11_5 Mg13_0 3.143393 1_555
Mg11_5 Mg3_5 3.191380 1_555
Mg11_5 Mg3_1 3.191380 1_555
Mg11_6 Mn13_2 2.910829 1_555
Mg11_6 Mn13_6 2.910829 1_555
Mg11_6 Mn1_6 2.955194 1_555
Mg11_6 Mn1_2 2.955194 1_555
Mg11_6 Mg16_2 3.108973 1_555
Mg11_6 Mg16_6 3.108973 1_555
Mg11_6 Mg13_7 3.143393 1_554
Mg11_6 Mg13_3 3.143393 1_554
Mg11_6 Mg3_6 3.191380 1_555
Mg11_6 Mg3_2 3.191380 1_555
Mg11_7 Mn13_3 2.910829 1_555
Mg11_7 Mn13_7 2.910829 1_555
Mg11_7 Mn1_3 2.955194 1_555
Mg11_7 Mn1_7 2.955194 1_555
Mg11_7 Mg16_3 3.108973 1_555
Mg11_7 Mg16_7 3.108973 1_555
Mg11_7 Mg13_2 3.143393 1_555
Mg11_7 Mg13_6 3.143393 1_555
Mg11_7 Mg3_3 3.191380 1_555
Mg11_7 Mg3_7 3.191380 1_555
Mg12_0 Mn1_0 2.646716 1_555
Mg12_0 Mn14_0 2.698901 1_555
Mg12_0 Mn14_4 2.698901 1_555
Mg12_0 Mn8_4 2.751604 1_555
Mg12_0 Mn8_0 2.751604 1_555
Mg12_0 Mg12_4 2.863526 1_455
Mg12_0 Mg12_4 2.863526 1_555
Mg12_0 Mg16_0 3.136323 1_555
Mg12_0 Mg2_1 3.341141 1_554
Mg12_1 Mn1_1 2.646716 1_555
Mg12_1 Mn14_1 2.698901 1_555
Mg12_1 Mn14_5 2.698901 1_555
Mg12_1 Mn8_1 2.751604 1_555
Mg12_1 Mn8_5 2.751604 1_555
Mg12_1 Mg12_5 2.863526 1_555
Mg12_1 Mg12_5 2.863526 1_455
Mg12_1 Mg16_1 3.136323 1_555
Mg12_1 Mg2_0 3.341141 1_555
Mg12_2 Mn1_2 2.646716 1_555
Mg12_2 Mn14_2 2.698901 1_555
Mg12_2 Mn14_6 2.698901 1_555
Mg12_2 Mn8_6 2.751604 1_555
Mg12_2 Mn8_2 2.751604 1_555
Mg12_2 Mg12_6 2.863526 1_555
Mg12_2 Mg12_6 2.863526 1_455
Mg12_2 Mg16_2 3.136323 1_555
Mg12_2 Mg2_3 3.341141 1_554
Mg12_3 Mn1_3 2.646716 1_555
Mg12_3 Mn14_7 2.698901 1_555
Mg12_3 Mn14_3 2.698901 1_555
Mg12_3 Mn8_3 2.751604 1_555
Mg12_3 Mn8_7 2.751604 1_555
Mg12_3 Mg12_7 2.863526 1_455
Mg12_3 Mg12_7 2.863526 1_555
Mg12_3 Mg16_3 3.136323 1_555
Mg12_3 Mg2_2 3.341141 1_555
Mg12_4 Mn1_4 2.646716 1_555
Mg12_4 Mn14_0 2.698901 1_655
Mg12_4 Mn14_4 2.698901 1_555
Mg12_4 Mn8_0 2.751604 1_655
Mg12_4 Mn8_4 2.751604 1_555
Mg12_4 Mg16_4 3.136323 1_555
Mg12_4 Mg2_5 3.341141 1_554
Mg12_5 Mn1_5 2.646716 1_555
Mg12_5 Mn14_1 2.698901 1_655
Mg12_5 Mn14_5 2.698901 1_555
Mg12_5 Mn8_5 2.751604 1_555
Mg12_5 Mn8_1 2.751604 1_655
Mg12_5 Mg16_5 3.136323 1_555
Mg12_5 Mg2_4 3.341141 1_555
Mg12_6 Mn1_6 2.646716 1_555
Mg12_6 Mn14_2 2.698901 1_655
Mg12_6 Mn14_6 2.698901 1_555
Mg12_6 Mn8_6 2.751604 1_555
Mg12_6 Mn8_2 2.751604 1_655
Mg12_6 Mg16_6 3.136323 1_555
Mg12_6 Mg2_7 3.341141 1_554
Mg12_7 Mn1_7 2.646716 1_555
Mg12_7 Mn14_3 2.698901 1_655
Mg12_7 Mn14_7 2.698901 1_555
Mg12_7 Mn8_7 2.751604 1_555
Mg12_7 Mn8_3 2.751604 1_655
Mg12_7 Mg16_7 3.136323 1_555
Mg12_7 Mg2_6 3.341141 1_555
Mg13_0 Mn1_1 2.646716 1_555
Mg13_0 Mn14_7 2.698901 1_555
Mg13_0 Mn14_3 2.698901 1_555
Mg13_0 Mn9_0 2.751604 1_555
Mg13_0 Mn9_4 2.751604 1_555
Mg13_0 Mg13_4 2.863526 1_455
Mg13_0 Mg13_4 2.863526 1_555
Mg13_0 Mg17_0 3.136323 1_555
Mg13_0 Mg3_1 3.341141 1_555
Mg13_1 Mn1_0 2.646716 1_556
Mg13_1 Mn14_6 2.698901 1_556
Mg13_1 Mn14_2 2.698901 1_556
Mg13_1 Mn9_5 2.751604 1_555
Mg13_1 Mn9_1 2.751604 1_555
Mg13_1 Mg13_5 2.863526 1_555
Mg13_1 Mg13_5 2.863526 1_455
Mg13_1 Mg17_1 3.136323 1_555
Mg13_1 Mg3_0 3.341141 1_556
Mg13_2 Mn1_3 2.646716 1_555
Mg13_2 Mn14_5 2.698901 1_565
Mg13_2 Mn14_1 2.698901 1_565
Mg13_2 Mn9_6 2.751604 1_555
Mg13_2 Mn9_2 2.751604 1_555
Mg13_2 Mg13_6 2.863526 1_555
Mg13_2 Mg13_6 2.863526 1_455
Mg13_2 Mg17_2 3.136323 1_555
Mg13_2 Mg3_3 3.341141 1_555
Mg13_3 Mn1_2 2.646716 1_556
Mg13_3 Mn14_0 2.698901 1_566
Mg13_3 Mn14_4 2.698901 1_566
Mg13_3 Mn9_3 2.751604 1_555
Mg13_3 Mn9_7 2.751604 1_555
Mg13_3 Mg13_7 2.863526 1_555
Mg13_3 Mg13_7 2.863526 1_455
Mg13_3 Mg17_3 3.136323 1_555
Mg13_3 Mg3_2 3.341141 1_556
Mg13_4 Mn1_5 2.646716 1_555
Mg13_4 Mn14_3 2.698901 1_655
Mg13_4 Mn14_7 2.698901 1_555
Mg13_4 Mn9_4 2.751604 1_555
Mg13_4 Mn9_0 2.751604 1_655
Mg13_4 Mg17_4 3.136323 1_555
Mg13_4 Mg3_5 3.341141 1_555
Mg13_5 Mn1_4 2.646716 1_556
Mg13_5 Mn14_2 2.698901 1_656
Mg13_5 Mn14_6 2.698901 1_556
Mg13_5 Mn9_5 2.751604 1_555
Mg13_5 Mn9_1 2.751604 1_655
Mg13_5 Mg17_5 3.136323 1_555
Mg13_5 Mg3_4 3.341141 1_556
Mg13_6 Mn1_7 2.646716 1_555
Mg13_6 Mn14_5 2.698901 1_565
Mg13_6 Mn14_1 2.698901 1_665
Mg13_6 Mn9_6 2.751604 1_555
Mg13_6 Mn9_2 2.751604 1_655
Mg13_6 Mg17_6 3.136323 1_555
Mg13_6 Mg3_7 3.341141 1_555
Mg13_7 Mn1_6 2.646716 1_556
Mg13_7 Mn14_4 2.698901 1_566
Mg13_7 Mn14_0 2.698901 1_666
Mg13_7 Mn9_3 2.751604 1_655
Mg13_7 Mn9_7 2.751604 1_555
Mg13_7 Mg17_7 3.136323 1_555
Mg13_7 Mg3_6 3.341141 1_556
Mg14_0 Mn0_0 2.646716 1_555
Mg14_0 Mn15_0 2.698901 1_555
Mg14_0 Mn15_4 2.698901 1_555
Mg14_0 Mn6_0 2.751604 1_555
Mg14_0 Mn6_4 2.751604 1_555
Mg14_0 Mg14_4 2.863526 1_455
Mg14_0 Mg14_4 2.863526 1_555
Mg14_0 Mg18_0 3.136323 1_555
Mg14_0 Mg8_0 3.143393 1_555
Mg14_0 Mg8_4 3.143393 1_555
Mg14_1 Mn0_1 2.646716 1_555
Mg14_1 Mn15_1 2.698901 1_555
Mg14_1 Mn15_5 2.698901 1_555
Mg14_1 Mn6_1 2.751604 1_555
Mg14_1 Mn6_5 2.751604 1_555
Mg14_1 Mg14_5 2.863526 1_555
Mg14_1 Mg14_5 2.863526 1_455
Mg14_1 Mg18_1 3.136323 1_555
Mg14_1 Mg8_1 3.143393 1_555
Mg14_1 Mg8_5 3.143393 1_555
Mg14_2 Mn0_2 2.646716 1_555
Mg14_2 Mn15_2 2.698901 1_555
Mg14_2 Mn15_6 2.698901 1_555
Mg14_2 Mn6_2 2.751604 1_555
Mg14_2 Mn6_6 2.751604 1_555
Mg14_2 Mg14_6 2.863526 1_555
Mg14_2 Mg14_6 2.863526 1_455
Mg14_2 Mg18_2 3.136323 1_555
Mg14_2 Mg8_6 3.143393 1_555
Mg14_2 Mg8_2 3.143393 1_555
Mg14_3 Mn0_3 2.646716 1_555
Mg14_3 Mn15_3 2.698901 1_555
Mg14_3 Mn15_7 2.698901 1_555
Mg14_3 Mn6_7 2.751604 1_555
Mg14_3 Mn6_3 2.751604 1_555
Mg14_3 Mg14_7 2.863526 1_455
Mg14_3 Mg14_7 2.863526 1_555
Mg14_3 Mg18_3 3.136323 1_555
Mg14_3 Mg8_3 3.143393 1_555
Mg14_3 Mg8_7 3.143393 1_555
Mg14_4 Mn0_4 2.646716 1_555
Mg14_4 Mn15_0 2.698901 1_655
Mg14_4 Mn15_4 2.698901 1_555
Mg14_4 Mn6_4 2.751604 1_555
Mg14_4 Mn6_0 2.751604 1_655
Mg14_4 Mg18_4 3.136323 1_555
Mg14_4 Mg8_4 3.143393 1_555
Mg14_4 Mg8_0 3.143393 1_655
Mg14_5 Mn0_5 2.646716 1_555
Mg14_5 Mn15_1 2.698901 1_655
Mg14_5 Mn15_5 2.698901 1_555
Mg14_5 Mn6_1 2.751604 1_655
Mg14_5 Mn6_5 2.751604 1_555
Mg14_5 Mg18_5 3.136323 1_555
Mg14_5 Mg8_1 3.143393 1_655
Mg14_5 Mg8_5 3.143393 1_555
Mg14_6 Mn0_6 2.646716 1_555
Mg14_6 Mn15_2 2.698901 1_655
Mg14_6 Mn15_6 2.698901 1_555
Mg14_6 Mn6_6 2.751604 1_555
Mg14_6 Mn6_2 2.751604 1_655
Mg14_6 Mg18_6 3.136323 1_555
Mg14_6 Mg8_2 3.143393 1_655
Mg14_6 Mg8_6 3.143393 1_555
Mg14_7 Mn0_7 2.646716 1_555
Mg14_7 Mn15_3 2.698901 1_655
Mg14_7 Mn15_7 2.698901 1_555
Mg14_7 Mn6_7 2.751604 1_555
Mg14_7 Mn6_3 2.751604 1_655
Mg14_7 Mg18_7 3.136323 1_555
Mg14_7 Mg8_3 3.143393 1_655
Mg14_7 Mg8_7 3.143393 1_555
Mg15_0 Mn0_2 2.646716 1_555
Mg15_0 Mn15_0 2.698901 1_555
Mg15_0 Mn15_4 2.698901 1_555
Mg15_0 Mn7_0 2.751604 1_555
Mg15_0 Mn7_4 2.751604 1_555
Mg15_0 Mg15_4 2.863526 1_555
Mg15_0 Mg15_4 2.863526 1_455
Mg15_0 Mg19_0 3.136323 1_555
Mg15_0 Mg9_0 3.143393 1_555
Mg15_0 Mg9_4 3.143393 1_555
Mg15_0 Mg1_0 3.341141 1_555
Mg15_1 Mn0_3 2.646716 1_555
Mg15_1 Mn15_5 2.698901 1_555
Mg15_1 Mn15_1 2.698901 1_555
Mg15_1 Mn7_1 2.751604 1_555
Mg15_1 Mn7_5 2.751604 1_555
Mg15_1 Mg15_5 2.863526 1_455
Mg15_1 Mg15_5 2.863526 1_555
Mg15_1 Mg19_1 3.136323 1_555
Mg15_1 Mg9_1 3.143393 1_555
Mg15_1 Mg9_5 3.143393 1_555
Mg15_1 Mg1_1 3.341141 1_555
Mg15_2 Mn0_0 2.646716 1_565
Mg15_2 Mn15_2 2.698901 1_555
Mg15_2 Mn15_6 2.698901 1_555
Mg15_2 Mn7_6 2.751604 1_555
Mg15_2 Mn7_2 2.751604 1_555
Mg15_2 Mg15_6 2.863526 1_455
Mg15_2 Mg15_6 2.863526 1_555
Mg15_2 Mg19_2 3.136323 1_555
Mg15_2 Mg9_2 3.143393 1_555
Mg15_2 Mg9_6 3.143393 1_555
Mg15_2 Mg1_2 3.341141 1_555
Mg15_3 Mn0_1 2.646716 1_565
Mg15_3 Mn15_3 2.698901 1_555
Mg15_3 Mn15_7 2.698901 1_555
Mg15_3 Mn7_3 2.751604 1_555
Mg15_3 Mn7_7 2.751604 1_555
Mg15_3 Mg15_7 2.863526 1_455
Mg15_3 Mg15_7 2.863526 1_555
Mg15_3 Mg19_3 3.136323 1_555
Mg15_3 Mg9_3 3.143393 1_555
Mg15_3 Mg9_7 3.143393 1_555
Mg15_3 Mg1_3 3.341141 1_555
Mg15_4 Mn0_6 2.646716 1_555
Mg15_4 Mn15_4 2.698901 1_555
Mg15_4 Mn15_0 2.698901 1_655
Mg15_4 Mn7_0 2.751604 1_655
Mg15_4 Mn7_4 2.751604 1_555
Mg15_4 Mg19_4 3.136323 1_555
Mg15_4 Mg9_4 3.143393 1_555
Mg15_4 Mg9_0 3.143393 1_655
Mg15_4 Mg1_4 3.341141 1_555
Mg15_5 Mn0_7 2.646716 1_555
Mg15_5 Mn15_1 2.698901 1_655
Mg15_5 Mn15_5 2.698901 1_555
Mg15_5 Mn7_1 2.751604 1_655
Mg15_5 Mn7_5 2.751604 1_555
Mg15_5 Mg19_5 3.136323 1_555
Mg15_5 Mg9_5 3.143393 1_555
Mg15_5 Mg9_1 3.143393 1_655
Mg15_5 Mg1_5 3.341141 1_555
Mg15_6 Mn0_4 2.646716 1_565
Mg15_6 Mn15_2 2.698901 1_655
Mg15_6 Mn15_6 2.698901 1_555
Mg15_6 Mn7_2 2.751604 1_655
Mg15_6 Mn7_6 2.751604 1_555
Mg15_6 Mg19_6 3.136323 1_555
Mg15_6 Mg9_2 3.143393 1_655
Mg15_6 Mg9_6 3.143393 1_555
Mg15_6 Mg1_6 3.341141 1_555
Mg15_7 Mn0_5 2.646716 1_565
Mg15_7 Mn15_7 2.698901 1_555
Mg15_7 Mn15_3 2.698901 1_655
Mg15_7 Mn7_7 2.751604 1_555
Mg15_7 Mn7_3 2.751604 1_655
Mg15_7 Mg19_7 3.136323 1_555
Mg15_7 Mg9_3 3.143393 1_655
Mg15_7 Mg9_7 3.143393 1_555
Mg15_7 Mg1_7 3.341141 1_555
Mg16_0 Mn8_0 2.801963 1_555
Mg16_0 Mn8_4 2.801963 1_555
Mg16_0 Mg16_4 2.863526 1_455
Mg16_0 Mg16_4 2.863526 1_555
Mg16_0 Mn2_0 3.084579 1_555
Mg16_0 Mn2_4 3.084579 1_555
Mg16_0 Mg4_4 3.133408 1_555
Mg16_0 Mg4_0 3.133408 1_555
Mg16_0 Mn1_0 3.348972 1_555
Mg16_0 Mn13_0 3.378563 1_555
Mg16_1 Mn8_1 2.801963 1_555
Mg16_1 Mn8_5 2.801963 1_555
Mg16_1 Mg16_5 2.863526 1_455
Mg16_1 Mg16_5 2.863526 1_555
Mg16_1 Mn2_1 3.084579 1_555
Mg16_1 Mn2_5 3.084579 1_555
Mg16_1 Mg4_1 3.133408 1_555
Mg16_1 Mg4_5 3.133408 1_555
Mg16_1 Mn1_1 3.348972 1_555
Mg16_1 Mn13_1 3.378563 1_555
Mg16_2 Mn8_2 2.801963 1_555
Mg16_2 Mn8_6 2.801963 1_555
Mg16_2 Mg16_6 2.863526 1_455
Mg16_2 Mg16_6 2.863526 1_555
Mg16_2 Mn2_2 3.084579 1_555
Mg16_2 Mn2_6 3.084579 1_555
Mg16_2 Mg4_2 3.133408 1_555
Mg16_2 Mg4_6 3.133408 1_555
Mg16_2 Mn1_2 3.348972 1_555
Mg16_2 Mn13_2 3.378563 1_555
Mg16_3 Mn8_7 2.801963 1_555
Mg16_3 Mn8_3 2.801963 1_555
Mg16_3 Mg16_7 2.863526 1_455
Mg16_3 Mg16_7 2.863526 1_555
Mg16_3 Mn2_7 3.084579 1_555
Mg16_3 Mn2_3 3.084579 1_555
Mg16_3 Mg4_3 3.133408 1_555
Mg16_3 Mg4_7 3.133408 1_555
Mg16_3 Mn1_3 3.348972 1_555
Mg16_3 Mn13_3 3.378563 1_555
Mg16_4 Mn8_0 2.801963 1_655
Mg16_4 Mn8_4 2.801963 1_555
Mg16_4 Mn2_0 3.084579 1_655
Mg16_4 Mn2_4 3.084579 1_555
Mg16_4 Mg4_0 3.133408 1_655
Mg16_4 Mg4_4 3.133408 1_555
Mg16_4 Mn1_4 3.348972 1_555
Mg16_4 Mn13_4 3.378563 1_555
Mg16_5 Mn8_5 2.801963 1_555
Mg16_5 Mn8_1 2.801963 1_655
Mg16_5 Mn2_5 3.084579 1_555
Mg16_5 Mn2_1 3.084579 1_655
Mg16_5 Mg4_1 3.133408 1_655
Mg16_5 Mg4_5 3.133408 1_555
Mg16_5 Mn1_5 3.348972 1_555
Mg16_5 Mn13_5 3.378563 1_555
Mg16_6 Mn8_2 2.801963 1_655
Mg16_6 Mn8_6 2.801963 1_555
Mg16_6 Mn2_6 3.084579 1_555
Mg16_6 Mn2_2 3.084579 1_655
Mg16_6 Mg4_2 3.133408 1_655
Mg16_6 Mg4_6 3.133408 1_555
Mg16_6 Mn1_6 3.348972 1_555
Mg16_6 Mn13_6 3.378563 1_555
Mg16_7 Mn8_7 2.801963 1_555
Mg16_7 Mn8_3 2.801963 1_655
Mg16_7 Mn2_3 3.084579 1_655
Mg16_7 Mn2_7 3.084579 1_555
Mg16_7 Mg4_7 3.133408 1_555
Mg16_7 Mg4_3 3.133408 1_655
Mg16_7 Mn1_7 3.348972 1_555
Mg16_7 Mn13_7 3.378563 1_555
Mg17_0 Mn9_0 2.801963 1_555
Mg17_0 Mn9_4 2.801963 1_555
Mg17_0 Mg17_4 2.863526 1_555
Mg17_0 Mg17_4 2.863526 1_455
Mg17_0 Mn3_4 3.084579 1_555
Mg17_0 Mn3_0 3.084579 1_555
Mg17_0 Mg5_0 3.133408 1_555
Mg17_0 Mg5_4 3.133408 1_555
Mg17_0 Mn1_1 3.348972 1_555
Mg17_0 Mn12_0 3.378563 1_555
Mg17_1 Mn9_5 2.801963 1_555
Mg17_1 Mn9_1 2.801963 1_555
Mg17_1 Mg17_5 2.863526 1_555
Mg17_1 Mg17_5 2.863526 1_455
Mg17_1 Mn3_1 3.084579 1_555
Mg17_1 Mn3_5 3.084579 1_555
Mg17_1 Mg5_5 3.133408 1_555
Mg17_1 Mg5_1 3.133408 1_555
Mg17_1 Mn1_0 3.348972 1_556
Mg17_1 Mn12_1 3.378563 1_555
Mg17_2 Mn9_6 2.801963 1_555
Mg17_2 Mn9_2 2.801963 1_555
Mg17_2 Mg17_6 2.863526 1_455
Mg17_2 Mg17_6 2.863526 1_555
Mg17_2 Mn3_6 3.084579 1_555
Mg17_2 Mn3_2 3.084579 1_555
Mg17_2 Mg5_2 3.133408 1_555
Mg17_2 Mg5_6 3.133408 1_555
Mg17_2 Mn1_3 3.348972 1_555
Mg17_2 Mn12_2 3.378563 1_555
Mg17_3 Mn9_7 2.801963 1_555
Mg17_3 Mn9_3 2.801963 1_555
Mg17_3 Mg17_7 2.863526 1_555
Mg17_3 Mg17_7 2.863526 1_455
Mg17_3 Mn3_3 3.084579 1_555
Mg17_3 Mn3_7 3.084579 1_555
Mg17_3 Mg5_3 3.133408 1_555
Mg17_3 Mg5_7 3.133408 1_555
Mg17_3 Mn1_2 3.348972 1_556
Mg17_3 Mn12_3 3.378563 1_555
Mg17_4 Mn9_4 2.801963 1_555
Mg17_4 Mn9_0 2.801963 1_655
Mg17_4 Mn3_4 3.084579 1_555
Mg17_4 Mn3_0 3.084579 1_655
Mg17_4 Mg5_0 3.133408 1_655
Mg17_4 Mg5_4 3.133408 1_555
Mg17_4 Mn1_5 3.348972 1_555
Mg17_4 Mn12_4 3.378563 1_555
Mg17_5 Mn9_1 2.801963 1_655
Mg17_5 Mn9_5 2.801963 1_555
Mg17_5 Mn3_1 3.084579 1_655
Mg17_5 Mn3_5 3.084579 1_555
Mg17_5 Mg5_5 3.133408 1_555
Mg17_5 Mg5_1 3.133408 1_655
Mg17_5 Mn1_4 3.348972 1_556
Mg17_5 Mn12_5 3.378563 1_555
Mg17_6 Mn9_6 2.801963 1_555
Mg17_6 Mn9_2 2.801963 1_655
Mg17_6 Mn3_6 3.084579 1_555
Mg17_6 Mn3_2 3.084579 1_655
Mg17_6 Mg5_2 3.133408 1_655
Mg17_6 Mg5_6 3.133408 1_555
Mg17_6 Mn1_7 3.348972 1_555
Mg17_6 Mn12_6 3.378563 1_555
Mg17_7 Mn9_7 2.801963 1_555
Mg17_7 Mn9_3 2.801963 1_655
Mg17_7 Mn3_3 3.084579 1_655
Mg17_7 Mn3_7 3.084579 1_555
Mg17_7 Mg5_3 3.133408 1_655
Mg17_7 Mg5_7 3.133408 1_555
Mg17_7 Mn1_6 3.348972 1_556
Mg17_7 Mn12_7 3.378563 1_555
Mg18_0 Mn6_0 2.801963 1_555
Mg18_0 Mn6_4 2.801963 1_555
Mg18_0 Mg18_4 2.863526 1_455
Mg18_0 Mg18_4 2.863526 1_555
Mg18_0 Mn4_0 3.084579 1_555
Mg18_0 Mn4_4 3.084579 1_555
Mg18_0 Mg9_2 3.108973 1_545
Mg18_0 Mg9_6 3.108973 1_545
Mg18_0 Mg6_0 3.133408 1_555
Mg18_0 Mg6_4 3.133408 1_555
Mg18_0 Mn0_0 3.348972 1_555
Mg18_0 Mn11_2 3.378563 1_545
Mg18_1 Mn6_5 2.801963 1_555
Mg18_1 Mn6_1 2.801963 1_555
Mg18_1 Mg18_5 2.863526 1_455
Mg18_1 Mg18_5 2.863526 1_555
Mg18_1 Mn4_5 3.084579 1_555
Mg18_1 Mn4_1 3.084579 1_555
Mg18_1 Mg9_3 3.108973 1_545
Mg18_1 Mg9_7 3.108973 1_545
Mg18_1 Mg6_1 3.133408 1_555
Mg18_1 Mg6_5 3.133408 1_555
Mg18_1 Mn0_1 3.348972 1_555
Mg18_1 Mn11_3 3.378563 1_545
Mg18_2 Mn6_2 2.801963 1_555
Mg18_2 Mn6_6 2.801963 1_555
Mg18_2 Mg18_6 2.863526 1_555
Mg18_2 Mg18_6 2.863526 1_455
Mg18_2 Mn4_2 3.084579 1_555
Mg18_2 Mn4_6 3.084579 1_555
Mg18_2 Mg9_0 3.108973 1_555
Mg18_2 Mg9_4 3.108973 1_555
Mg18_2 Mg6_6 3.133408 1_555
Mg18_2 Mg6_2 3.133408 1_555
Mg18_2 Mn0_2 3.348972 1_555
Mg18_2 Mn11_0 3.378563 1_555
Mg18_3 Mn6_7 2.801963 1_555
Mg18_3 Mn6_3 2.801963 1_555
Mg18_3 Mg18_7 2.863526 1_455
Mg18_3 Mg18_7 2.863526 1_555
Mg18_3 Mn4_3 3.084579 1_555
Mg18_3 Mn4_7 3.084579 1_555
Mg18_3 Mg9_1 3.108973 1_555
Mg18_3 Mg9_5 3.108973 1_555
Mg18_3 Mg6_3 3.133408 1_555
Mg18_3 Mg6_7 3.133408 1_555
Mg18_3 Mn0_3 3.348972 1_555
Mg18_3 Mn11_1 3.378563 1_555
Mg18_4 Mn6_4 2.801963 1_555
Mg18_4 Mn6_0 2.801963 1_655
Mg18_4 Mn4_0 3.084579 1_655
Mg18_4 Mn4_4 3.084579 1_555
Mg18_4 Mg9_2 3.108973 1_645
Mg18_4 Mg9_6 3.108973 1_545
Mg18_4 Mg6_4 3.133408 1_555
Mg18_4 Mg6_0 3.133408 1_655
Mg18_4 Mn0_4 3.348972 1_555
Mg18_4 Mn11_6 3.378563 1_545
Mg18_5 Mn6_5 2.801963 1_555
Mg18_5 Mn6_1 2.801963 1_655
Mg18_5 Mn4_5 3.084579 1_555
Mg18_5 Mn4_1 3.084579 1_655
Mg18_5 Mg9_7 3.108973 1_545
Mg18_5 Mg9_3 3.108973 1_645
Mg18_5 Mg6_1 3.133408 1_655
Mg18_5 Mg6_5 3.133408 1_555
Mg18_5 Mn0_5 3.348972 1_555
Mg18_5 Mn11_7 3.378563 1_545
Mg18_6 Mn6_6 2.801963 1_555
Mg18_6 Mn6_2 2.801963 1_655
Mg18_6 Mn4_2 3.084579 1_655
Mg18_6 Mn4_6 3.084579 1_555
Mg18_6 Mg9_0 3.108973 1_655
Mg18_6 Mg9_4 3.108973 1_555
Mg18_6 Mg6_2 3.133408 1_655
Mg18_6 Mg6_6 3.133408 1_555
Mg18_6 Mn0_6 3.348972 1_555
Mg18_6 Mn11_4 3.378563 1_555
Mg18_7 Mn6_3 2.801963 1_655
Mg18_7 Mn6_7 2.801963 1_555
Mg18_7 Mn4_3 3.084579 1_655
Mg18_7 Mn4_7 3.084579 1_555
Mg18_7 Mg9_5 3.108973 1_555
Mg18_7 Mg9_1 3.108973 1_655
Mg18_7 Mg6_7 3.133408 1_555
Mg18_7 Mg6_3 3.133408 1_655
Mg18_7 Mn0_7 3.348972 1_555
Mg18_7 Mn11_5 3.378563 1_555
Mg19_0 Mn7_4 2.801963 1_555
Mg19_0 Mn7_0 2.801963 1_555
Mg19_0 Mg19_4 2.863526 1_455
Mg19_0 Mg19_4 2.863526 1_555
Mg19_0 Mn5_0 3.084579 1_555
Mg19_0 Mn5_4 3.084579 1_555
Mg19_0 Mg8_6 3.108973 1_555
Mg19_0 Mg8_2 3.108973 1_555
Mg19_0 Mg7_4 3.133408 1_555
Mg19_0 Mg7_0 3.133408 1_555
Mg19_0 Mn0_2 3.348972 1_555
Mg19_0 Mn10_2 3.378563 1_555
Mg19_1 Mn7_1 2.801963 1_555
Mg19_1 Mn7_5 2.801963 1_555
Mg19_1 Mg19_5 2.863526 1_455
Mg19_1 Mg19_5 2.863526 1_555
Mg19_1 Mn5_1 3.084579 1_555
Mg19_1 Mn5_5 3.084579 1_555
Mg19_1 Mg8_7 3.108973 1_555
Mg19_1 Mg8_3 3.108973 1_555
Mg19_1 Mg7_1 3.133408 1_555
Mg19_1 Mg7_5 3.133408 1_555
Mg19_1 Mn0_3 3.348972 1_555
Mg19_1 Mn10_3 3.378563 1_555
Mg19_2 Mn7_6 2.801963 1_555
Mg19_2 Mn7_2 2.801963 1_555
Mg19_2 Mg19_6 2.863526 1_455
Mg19_2 Mg19_6 2.863526 1_555
Mg19_2 Mn5_2 3.084579 1_555
Mg19_2 Mn5_6 3.084579 1_555
Mg19_2 Mg8_0 3.108973 1_565
Mg19_2 Mg8_4 3.108973 1_565
Mg19_2 Mg7_2 3.133408 1_555
Mg19_2 Mg7_6 3.133408 1_555
Mg19_2 Mn0_0 3.348972 1_565
Mg19_2 Mn10_0 3.378563 1_565
Mg19_3 Mn7_3 2.801963 1_555
Mg19_3 Mn7_7 2.801963 1_555
Mg19_3 Mg19_7 2.863526 1_555
Mg19_3 Mg19_7 2.863526 1_455
Mg19_3 Mn5_7 3.084579 1_555
Mg19_3 Mn5_3 3.084579 1_555
Mg19_3 Mg8_1 3.108973 1_565
Mg19_3 Mg8_5 3.108973 1_565
Mg19_3 Mg7_3 3.133408 1_555
Mg19_3 Mg7_7 3.133408 1_555
Mg19_3 Mn0_1 3.348972 1_565
Mg19_3 Mn10_1 3.378563 1_565
Mg19_4 Mn7_0 2.801963 1_655
Mg19_4 Mn7_4 2.801963 1_555
Mg19_4 Mn5_0 3.084579 1_655
Mg19_4 Mn5_4 3.084579 1_555
Mg19_4 Mg8_2 3.108973 1_655
Mg19_4 Mg8_6 3.108973 1_555
Mg19_4 Mg7_0 3.133408 1_655
Mg19_4 Mg7_4 3.133408 1_555
Mg19_4 Mn0_6 3.348972 1_555
Mg19_4 Mn10_6 3.378563 1_555
Mg19_5 Mn7_1 2.801963 1_655
Mg19_5 Mn7_5 2.801963 1_555
Mg19_5 Mn5_1 3.084579 1_655
Mg19_5 Mn5_5 3.084579 1_555
Mg19_5 Mg8_3 3.108973 1_655
Mg19_5 Mg8_7 3.108973 1_555
Mg19_5 Mg7_1 3.133408 1_655
Mg19_5 Mg7_5 3.133408 1_555
Mg19_5 Mn0_7 3.348972 1_555
Mg19_5 Mn10_7 3.378563 1_555
Mg19_6 Mn7_6 2.801963 1_555
Mg19_6 Mn7_2 2.801963 1_655
Mg19_6 Mn5_2 3.084579 1_655
Mg19_6 Mn5_6 3.084579 1_555
Mg19_6 Mg8_4 3.108973 1_565
Mg19_6 Mg8_0 3.108973 1_665
Mg19_6 Mg7_2 3.133408 1_655
Mg19_6 Mg7_6 3.133408 1_555
Mg19_6 Mn0_4 3.348972 1_565
Mg19_6 Mn10_4 3.378563 1_565
Mg19_7 Mn7_3 2.801963 1_655
Mg19_7 Mn7_7 2.801963 1_555
Mg19_7 Mn5_3 3.084579 1_655
Mg19_7 Mn5_7 3.084579 1_555
Mg19_7 Mg8_5 3.108973 1_565
Mg19_7 Mg8_1 3.108973 1_665
Mg19_7 Mg7_7 3.133408 1_555
Mg19_7 Mg7_3 3.133408 1_655
Mg19_7 Mn0_5 3.348972 1_565
Mg19_7 Mn10_5 3.378563 1_565
Mn0_0 Mn0_4 2.863526 1_455
Mn0_0 Mn0_4 2.863526 1_555
Mn0_1 Mn0_5 2.863526 1_555
Mn0_1 Mn0_5 2.863526 1_455
Mn0_2 Mn0_6 2.863526 1_455
Mn0_2 Mn0_6 2.863526 1_555
Mn0_3 Mn0_7 2.863526 1_455
Mn0_3 Mn0_7 2.863526 1_555
Mn1_0 Mn1_4 2.863526 1_455
Mn1_0 Mn1_4 2.863526 1_555
Mn1_1 Mn1_5 2.863526 1_455
Mn1_1 Mn1_5 2.863526 1_555
Mn1_2 Mn1_6 2.863526 1_455
Mn1_2 Mn1_6 2.863526 1_555
Mn1_3 Mn1_7 2.863526 1_455
Mn1_3 Mn1_7 2.863526 1_555
Mn2_0 Mn8_0 2.503571 1_555
Mn2_0 Mn2_4 2.863526 1_555
Mn2_0 Mn2_4 2.863526 1_455
Mn2_1 Mn8_1 2.503571 1_555
Mn2_1 Mn2_5 2.863526 1_455
Mn2_1 Mn2_5 2.863526 1_555
Mn2_2 Mn8_2 2.503571 1_555
Mn2_2 Mn2_6 2.863526 1_455
Mn2_2 Mn2_6 2.863526 1_555
Mn2_3 Mn8_3 2.503571 1_555
Mn2_3 Mn2_7 2.863526 1_555
Mn2_3 Mn2_7 2.863526 1_455
Mn2_4 Mn8_4 2.503571 1_555
Mn2_5 Mn8_5 2.503571 1_555
Mn2_6 Mn8_6 2.503571 1_555
Mn2_7 Mn8_7 2.503571 1_555
Mn3_0 Mn9_0 2.503571 1_555
Mn3_0 Mn3_4 2.863526 1_455
Mn3_0 Mn3_4 2.863526 1_555
Mn3_1 Mn9_1 2.503571 1_555
Mn3_1 Mn3_5 2.863526 1_455
Mn3_1 Mn3_5 2.863526 1_555
Mn3_2 Mn9_2 2.503571 1_555
Mn3_2 Mn3_6 2.863526 1_555
Mn3_2 Mn3_6 2.863526 1_455
Mn3_3 Mn9_3 2.503571 1_555
Mn3_3 Mn3_7 2.863526 1_455
Mn3_3 Mn3_7 2.863526 1_555
Mn3_4 Mn9_4 2.503571 1_555
Mn3_5 Mn9_5 2.503571 1_555
Mn3_6 Mn9_6 2.503571 1_555
Mn3_7 Mn9_7 2.503571 1_555
Mn4_0 Mn6_0 2.503571 1_555
Mn4_0 Mn4_4 2.863526 1_555
Mn4_0 Mn4_4 2.863526 1_455
Mn4_1 Mn6_1 2.503571 1_555
Mn4_1 Mn4_5 2.863526 1_555
Mn4_1 Mn4_5 2.863526 1_455
Mn4_2 Mn6_2 2.503571 1_555
Mn4_2 Mn4_6 2.863526 1_455
Mn4_2 Mn4_6 2.863526 1_555
Mn4_3 Mn6_3 2.503571 1_555
Mn4_3 Mn4_7 2.863526 1_455
Mn4_3 Mn4_7 2.863526 1_555
Mn4_4 Mn6_4 2.503571 1_555
Mn4_5 Mn6_5 2.503571 1_555
Mn4_6 Mn6_6 2.503571 1_555
Mn4_7 Mn6_7 2.503571 1_555
Mn5_0 Mn7_0 2.503571 1_555
Mn5_0 Mn5_4 2.863526 1_455
Mn5_0 Mn5_4 2.863526 1_555
Mn5_1 Mn7_1 2.503571 1_555
Mn5_1 Mn5_5 2.863526 1_455
Mn5_1 Mn5_5 2.863526 1_555
Mn5_2 Mn7_2 2.503571 1_555
Mn5_2 Mn5_6 2.863526 1_455
Mn5_2 Mn5_6 2.863526 1_555
Mn5_3 Mn7_3 2.503571 1_555
Mn5_3 Mn5_7 2.863526 1_555
Mn5_3 Mn5_7 2.863526 1_455
Mn5_4 Mn7_4 2.503571 1_555
Mn5_5 Mn7_5 2.503571 1_555
Mn5_6 Mn7_6 2.503571 1_555
Mn5_7 Mn7_7 2.503571 1_555
Mn6_0 Mn6_4 2.863526 1_555
Mn6_0 Mn6_4 2.863526 1_455
Mn6_1 Mn6_5 2.863526 1_455
Mn6_1 Mn6_5 2.863526 1_555
Mn6_2 Mn6_6 2.863526 1_555
Mn6_2 Mn6_6 2.863526 1_455
Mn6_3 Mn6_7 2.863526 1_555
Mn6_3 Mn6_7 2.863526 1_455
Mn7_0 Mn7_4 2.863526 1_455
Mn7_0 Mn7_4 2.863526 1_555
Mn7_1 Mn7_5 2.863526 1_455
Mn7_1 Mn7_5 2.863526 1_555
Mn7_2 Mn7_6 2.863526 1_555
Mn7_2 Mn7_6 2.863526 1_455
Mn7_3 Mn7_7 2.863526 1_555
Mn7_3 Mn7_7 2.863526 1_455
Mn8_0 Mn8_4 2.863526 1_455
Mn8_0 Mn8_4 2.863526 1_555
Mn8_1 Mn8_5 2.863526 1_455
Mn8_1 Mn8_5 2.863526 1_555
Mn8_2 Mn8_6 2.863526 1_455
Mn8_2 Mn8_6 2.863526 1_555
Mn8_3 Mn8_7 2.863526 1_455
Mn8_3 Mn8_7 2.863526 1_555
Mn9_0 Mn9_4 2.863526 1_455
Mn9_0 Mn9_4 2.863526 1_555
Mn9_1 Mn9_5 2.863526 1_555
Mn9_1 Mn9_5 2.863526 1_455
Mn9_2 Mn9_6 2.863526 1_555
Mn9_2 Mn9_6 2.863526 1_455
Mn9_3 Mn9_7 2.863526 1_455
Mn9_3 Mn9_7 2.863526 1_555
Mn10_0 Mn2_0 2.645865 1_555
Mn10_0 Mn2_4 2.645865 1_555
Mn10_0 Mn10_4 2.863526 1_555
Mn10_0 Mn10_4 2.863526 1_455
Mn10_1 Mn2_5 2.645865 1_555
Mn10_1 Mn2_1 2.645865 1_555
Mn10_1 Mn10_5 2.863526 1_455
Mn10_1 Mn10_5 2.863526 1_555
Mn10_2 Mn2_2 2.645865 1_555
Mn10_2 Mn2_6 2.645865 1_555
Mn10_2 Mn10_6 2.863526 1_555
Mn10_2 Mn10_6 2.863526 1_455
Mn10_3 Mn2_7 2.645865 1_555
Mn10_3 Mn2_3 2.645865 1_555
Mn10_3 Mn10_7 2.863526 1_555
Mn10_3 Mn10_7 2.863526 1_455
Mn10_4 Mn2_0 2.645865 1_655
Mn10_4 Mn2_4 2.645865 1_555
Mn10_5 Mn2_5 2.645865 1_555
Mn10_5 Mn2_1 2.645865 1_655
Mn10_6 Mn2_2 2.645865 1_655
Mn10_6 Mn2_6 2.645865 1_555
Mn10_7 Mn2_3 2.645865 1_655
Mn10_7 Mn2_7 2.645865 1_555
Mn11_0 Mn3_4 2.645865 1_555
Mn11_0 Mn3_0 2.645865 1_555
Mn11_0 Mn11_4 2.863526 1_455
Mn11_0 Mn11_4 2.863526 1_555
Mn11_1 Mn3_1 2.645865 1_555
Mn11_1 Mn3_5 2.645865 1_555
Mn11_1 Mn11_5 2.863526 1_455
Mn11_1 Mn11_5 2.863526 1_555
Mn11_2 Mn3_6 2.645865 1_555
Mn11_2 Mn3_2 2.645865 1_555
Mn11_2 Mn11_6 2.863526 1_455
Mn11_2 Mn11_6 2.863526 1_555
Mn11_3 Mn3_7 2.645865 1_555
Mn11_3 Mn3_3 2.645865 1_555
Mn11_3 Mn11_7 2.863526 1_455
Mn11_3 Mn11_7 2.863526 1_555
Mn11_4 Mn3_4 2.645865 1_555
Mn11_4 Mn3_0 2.645865 1_655
Mn11_5 Mn3_1 2.645865 1_655
Mn11_5 Mn3_5 2.645865 1_555
Mn11_6 Mn3_2 2.645865 1_655
Mn11_6 Mn3_6 2.645865 1_555
Mn11_7 Mn3_7 2.645865 1_555
Mn11_7 Mn3_3 2.645865 1_655
Mn12_0 Mn4_0 2.645865 1_555
Mn12_0 Mn4_4 2.645865 1_555
Mn12_0 Mn12_4 2.863526 1_555
Mn12_0 Mn12_4 2.863526 1_455
Mn12_1 Mn4_1 2.645865 1_555
Mn12_1 Mn4_5 2.645865 1_555
Mn12_1 Mn12_5 2.863526 1_455
Mn12_1 Mn12_5 2.863526 1_555
Mn12_2 Mn4_2 2.645865 1_555
Mn12_2 Mn4_6 2.645865 1_555
Mn12_2 Mn12_6 2.863526 1_455
Mn12_2 Mn12_6 2.863526 1_555
Mn12_3 Mn4_3 2.645865 1_555
Mn12_3 Mn4_7 2.645865 1_555
Mn12_3 Mn12_7 2.863526 1_555
Mn12_3 Mn12_7 2.863526 1_455
Mn12_4 Mn4_0 2.645865 1_655
Mn12_4 Mn4_4 2.645865 1_555
Mn12_5 Mn4_1 2.645865 1_655
Mn12_5 Mn4_5 2.645865 1_555
Mn12_6 Mn4_2 2.645865 1_655
Mn12_6 Mn4_6 2.645865 1_555
Mn12_7 Mn4_3 2.645865 1_655
Mn12_7 Mn4_7 2.645865 1_555
Mn13_0 Mn5_4 2.645865 1_555
Mn13_0 Mn5_0 2.645865 1_555
Mn13_0 Mn13_4 2.863526 1_555
Mn13_0 Mn13_4 2.863526 1_455
Mn13_1 Mn5_1 2.645865 1_555
Mn13_1 Mn5_5 2.645865 1_555
Mn13_1 Mn13_5 2.863526 1_555
Mn13_1 Mn13_5 2.863526 1_455
Mn13_2 Mn5_2 2.645865 1_555
Mn13_2 Mn5_6 2.645865 1_555
Mn13_2 Mn13_6 2.863526 1_455
Mn13_2 Mn13_6 2.863526 1_555
Mn13_3 Mn5_3 2.645865 1_555
Mn13_3 Mn5_7 2.645865 1_555
Mn13_3 Mn13_7 2.863526 1_455
Mn13_3 Mn13_7 2.863526 1_555
Mn13_4 Mn5_0 2.645865 1_655
Mn13_4 Mn5_4 2.645865 1_555
Mn13_5 Mn5_5 2.645865 1_555
Mn13_5 Mn5_1 2.645865 1_655
Mn13_6 Mn5_2 2.645865 1_655
Mn13_6 Mn5_6 2.645865 1_555
Mn13_7 Mn5_7 2.645865 1_555
Mn13_7 Mn5_3 2.645865 1_655
Mn14_0 Mn8_0 2.380192 1_555
Mn14_0 Mn9_3 2.380192 1_544
Mn14_0 Mn14_4 2.863526 1_455
Mn14_0 Mn14_4 2.863526 1_555
Mn14_1 Mn8_1 2.380192 1_555
Mn14_1 Mn9_2 2.380192 1_545
Mn14_1 Mn14_5 2.863526 1_455
Mn14_1 Mn14_5 2.863526 1_555
Mn14_2 Mn8_2 2.380192 1_555
Mn14_2 Mn9_1 2.380192 1_554
Mn14_2 Mn14_6 2.863526 1_555
Mn14_2 Mn14_6 2.863526 1_455
Mn14_3 Mn8_3 2.380192 1_555
Mn14_3 Mn9_0 2.380192 1_555
Mn14_3 Mn14_7 2.863526 1_455
Mn14_3 Mn14_7 2.863526 1_555
Mn14_4 Mn8_4 2.380192 1_555
Mn14_4 Mn9_7 2.380192 1_544
Mn14_5 Mn8_5 2.380192 1_555
Mn14_5 Mn9_6 2.380192 1_545
Mn14_6 Mn8_6 2.380192 1_555
Mn14_6 Mn9_5 2.380192 1_554
Mn14_7 Mn8_7 2.380192 1_555
Mn14_7 Mn9_4 2.380192 1_555
Mn15_0 Mn6_0 2.380192 1_555
Mn15_0 Mn7_0 2.380192 1_555
Mn15_0 Mn15_4 2.863526 1_455
Mn15_0 Mn15_4 2.863526 1_555
Mn15_1 Mn6_1 2.380192 1_555
Mn15_1 Mn7_1 2.380192 1_555
Mn15_1 Mn15_5 2.863526 1_455
Mn15_1 Mn15_5 2.863526 1_555
Mn15_2 Mn6_2 2.380192 1_555
Mn15_2 Mn7_2 2.380192 1_555
Mn15_2 Mn15_6 2.863526 1_455
Mn15_2 Mn15_6 2.863526 1_555
Mn15_3 Mn6_3 2.380192 1_555
Mn15_3 Mn7_3 2.380192 1_555
Mn15_3 Mn15_7 2.863526 1_455
Mn15_3 Mn15_7 2.863526 1_555
Mn15_4 Mn6_4 2.380192 1_555
Mn15_4 Mn7_4 2.380192 1_555
Mn15_5 Mn6_5 2.380192 1_555
Mn15_5 Mn7_5 2.380192 1_555
Mn15_6 Mn6_6 2.380192 1_555
Mn15_6 Mn7_6 2.380192 1_555
Mn15_7 Mn6_7 2.380192 1_555
Mn15_7 Mn7_7 2.380192 1_555
