# generated using pymatgen
data_Zr40S27
_symmetry_space_group_name_H-M   'P 1'
_cell_length_a   6.77721667
_cell_length_b   6.77721667
_cell_length_c   275.40470000
_cell_angle_alpha   90.00000000
_cell_angle_beta   90.00000000
_cell_angle_gamma   120.00000657
_symmetry_Int_Tables_number   1
_chemical_formula_structural   Zr40S27
_chemical_formula_sum   'Zr320 S216'
_cell_volume   10954.80601811
_cell_formula_units_Z   8
loop_
 _symmetry_equiv_pos_site_id
 _symmetry_equiv_pos_as_xyz
  1  'x, y, z'
loop_
 _atom_site_type_symbol
 _atom_site_label
 _atom_site_symmetry_multiplicity
 _atom_site_fract_x
 _atom_site_fract_y
 _atom_site_fract_z
 _atom_site_occupancy
  Zr  Zr0_0  1  0.00000000  0.00000000  0.01250350  1
  Zr  Zr0_1  1  0.00000000  0.00000000  0.51250350  1
  Zr  Zr0_2  1  1.00000000  0.50000000  0.01250350  1
  Zr  Zr0_3  1  1.00000000  0.50000000  0.51250350  1
  Zr  Zr0_4  1  0.50000000  0.00000000  0.01250350  1
  Zr  Zr0_5  1  0.50000000  0.00000000  0.51250350  1
  Zr  Zr0_6  1  0.50000000  0.50000000  0.01250350  1
  Zr  Zr0_7  1  0.50000000  0.50000000  0.51250350  1
  Zr  Zr1_0  1  0.00000000  0.00000000  0.02552200  1
  Zr  Zr1_1  1  0.00000000  0.00000000  0.52552200  1
  Zr  Zr1_2  1  1.00000000  0.50000000  0.02552200  1
  Zr  Zr1_3  1  1.00000000  0.50000000  0.52552200  1
  Zr  Zr1_4  1  0.50000000  0.00000000  0.02552200  1
  Zr  Zr1_5  1  0.50000000  0.00000000  0.52552200  1
  Zr  Zr1_6  1  0.50000000  0.50000000  0.02552200  1
  Zr  Zr1_7  1  0.50000000  0.50000000  0.52552200  1
  Zr  Zr2_0  1  0.00000000  0.00000000  0.03783750  1
  Zr  Zr2_1  1  0.00000000  0.00000000  0.53783750  1
  Zr  Zr2_2  1  1.00000000  0.50000000  0.03783750  1
  Zr  Zr2_3  1  1.00000000  0.50000000  0.53783750  1
  Zr  Zr2_4  1  0.50000000  0.00000000  0.03783750  1
  Zr  Zr2_5  1  0.50000000  0.00000000  0.53783750  1
  Zr  Zr2_6  1  0.50000000  0.50000000  0.03783750  1
  Zr  Zr2_7  1  0.50000000  0.50000000  0.53783750  1
  Zr  Zr3_0  1  0.00000000  0.00000000  0.05003000  1
  Zr  Zr3_1  1  0.00000000  0.00000000  0.55003000  1
  Zr  Zr3_2  1  1.00000000  0.50000000  0.05003000  1
  Zr  Zr3_3  1  1.00000000  0.50000000  0.55003000  1
  Zr  Zr3_4  1  0.50000000  0.00000000  0.05003000  1
  Zr  Zr3_5  1  0.50000000  0.00000000  0.55003000  1
  Zr  Zr3_6  1  0.50000000  0.50000000  0.05003000  1
  Zr  Zr3_7  1  0.50000000  0.50000000  0.55003000  1
  Zr  Zr4_0  1  0.00000000  0.00000000  0.06246800  1
  Zr  Zr4_1  1  0.00000000  0.00000000  0.56246800  1
  Zr  Zr4_2  1  1.00000000  0.50000000  0.06246800  1
  Zr  Zr4_3  1  1.00000000  0.50000000  0.56246800  1
  Zr  Zr4_4  1  0.50000000  0.00000000  0.06246800  1
  Zr  Zr4_5  1  0.50000000  0.00000000  0.56246800  1
  Zr  Zr4_6  1  0.50000000  0.50000000  0.06246800  1
  Zr  Zr4_7  1  0.50000000  0.50000000  0.56246800  1
  Zr  Zr5_0  1  0.00000000  0.00000000  0.07498200  1
  Zr  Zr5_1  1  0.00000000  0.00000000  0.57498200  1
  Zr  Zr5_2  1  1.00000000  0.50000000  0.07498200  1
  Zr  Zr5_3  1  1.00000000  0.50000000  0.57498200  1
  Zr  Zr5_4  1  0.50000000  0.00000000  0.07498200  1
  Zr  Zr5_5  1  0.50000000  0.00000000  0.57498200  1
  Zr  Zr5_6  1  0.50000000  0.50000000  0.07498200  1
  Zr  Zr5_7  1  0.50000000  0.50000000  0.57498200  1
  Zr  Zr6_0  1  0.00000000  0.00000000  0.08749400  1
  Zr  Zr6_1  1  0.00000000  0.00000000  0.58749400  1
  Zr  Zr6_2  1  1.00000000  0.50000000  0.08749400  1
  Zr  Zr6_3  1  1.00000000  0.50000000  0.58749400  1
  Zr  Zr6_4  1  0.50000000  0.00000000  0.08749400  1
  Zr  Zr6_5  1  0.50000000  0.00000000  0.58749400  1
  Zr  Zr6_6  1  0.50000000  0.50000000  0.08749400  1
  Zr  Zr6_7  1  0.50000000  0.50000000  0.58749400  1
  Zr  Zr7_0  1  0.00000000  0.00000000  0.10001450  1
  Zr  Zr7_1  1  0.00000000  0.00000000  0.60001450  1
  Zr  Zr7_2  1  1.00000000  0.50000000  0.10001450  1
  Zr  Zr7_3  1  1.00000000  0.50000000  0.60001450  1
  Zr  Zr7_4  1  0.50000000  0.00000000  0.10001450  1
  Zr  Zr7_5  1  0.50000000  0.00000000  0.60001450  1
  Zr  Zr7_6  1  0.50000000  0.50000000  0.10001450  1
  Zr  Zr7_7  1  0.50000000  0.50000000  0.60001450  1
  Zr  Zr8_0  1  0.00000000  0.00000000  0.11253450  1
  Zr  Zr8_1  1  0.00000000  0.00000000  0.61253450  1
  Zr  Zr8_2  1  1.00000000  0.50000000  0.11253450  1
  Zr  Zr8_3  1  1.00000000  0.50000000  0.61253450  1
  Zr  Zr8_4  1  0.50000000  0.00000000  0.11253450  1
  Zr  Zr8_5  1  0.50000000  0.00000000  0.61253450  1
  Zr  Zr8_6  1  0.50000000  0.50000000  0.11253450  1
  Zr  Zr8_7  1  0.50000000  0.50000000  0.61253450  1
  Zr  Zr9_0  1  0.00000000  0.00000000  0.12497000  1
  Zr  Zr9_1  1  0.00000000  0.00000000  0.62497000  1
  Zr  Zr9_2  1  1.00000000  0.50000000  0.12497000  1
  Zr  Zr9_3  1  1.00000000  0.50000000  0.62497000  1
  Zr  Zr9_4  1  0.50000000  0.00000000  0.12497000  1
  Zr  Zr9_5  1  0.50000000  0.00000000  0.62497000  1
  Zr  Zr9_6  1  0.50000000  0.50000000  0.12497000  1
  Zr  Zr9_7  1  0.50000000  0.50000000  0.62497000  1
  Zr  Zr10_0  1  0.00000000  0.00000000  0.14950050  1
  Zr  Zr10_1  1  0.00000000  0.00000000  0.64950050  1
  Zr  Zr10_2  1  1.00000000  0.50000000  0.14950050  1
  Zr  Zr10_3  1  1.00000000  0.50000000  0.64950050  1
  Zr  Zr10_4  1  0.50000000  0.00000000  0.14950050  1
  Zr  Zr10_5  1  0.50000000  0.00000000  0.64950050  1
  Zr  Zr10_6  1  0.50000000  0.50000000  0.14950050  1
  Zr  Zr10_7  1  0.50000000  0.50000000  0.64950050  1
  Zr  Zr11_0  1  0.00000000  0.00000000  0.17474050  1
  Zr  Zr11_1  1  0.00000000  0.00000000  0.67474050  1
  Zr  Zr11_2  1  1.00000000  0.50000000  0.17474050  1
  Zr  Zr11_3  1  1.00000000  0.50000000  0.67474050  1
  Zr  Zr11_4  1  0.50000000  0.00000000  0.17474050  1
  Zr  Zr11_5  1  0.50000000  0.00000000  0.67474050  1
  Zr  Zr11_6  1  0.50000000  0.50000000  0.17474050  1
  Zr  Zr11_7  1  0.50000000  0.50000000  0.67474050  1
  Zr  Zr12_0  1  0.00000000  0.00000000  0.19936250  1
  Zr  Zr12_1  1  0.00000000  0.00000000  0.69936250  1
  Zr  Zr12_2  1  1.00000000  0.50000000  0.19936250  1
  Zr  Zr12_3  1  1.00000000  0.50000000  0.69936250  1
  Zr  Zr12_4  1  0.50000000  0.00000000  0.19936250  1
  Zr  Zr12_5  1  0.50000000  0.00000000  0.69936250  1
  Zr  Zr12_6  1  0.50000000  0.50000000  0.19936250  1
  Zr  Zr12_7  1  0.50000000  0.50000000  0.69936250  1
  Zr  Zr13_0  1  0.00000000  0.00000000  0.21215600  1
  Zr  Zr13_1  1  0.00000000  0.00000000  0.71215600  1
  Zr  Zr13_2  1  1.00000000  0.50000000  0.21215600  1
  Zr  Zr13_3  1  1.00000000  0.50000000  0.71215600  1
  Zr  Zr13_4  1  0.50000000  0.00000000  0.21215600  1
  Zr  Zr13_5  1  0.50000000  0.00000000  0.71215600  1
  Zr  Zr13_6  1  0.50000000  0.50000000  0.21215600  1
  Zr  Zr13_7  1  0.50000000  0.50000000  0.71215600  1
  Zr  Zr14_0  1  0.00000000  0.00000000  0.22487850  1
  Zr  Zr14_1  1  0.00000000  0.00000000  0.72487850  1
  Zr  Zr14_2  1  1.00000000  0.50000000  0.22487850  1
  Zr  Zr14_3  1  1.00000000  0.50000000  0.72487850  1
  Zr  Zr14_4  1  0.50000000  0.00000000  0.22487850  1
  Zr  Zr14_5  1  0.50000000  0.00000000  0.72487850  1
  Zr  Zr14_6  1  0.50000000  0.50000000  0.22487850  1
  Zr  Zr14_7  1  0.50000000  0.50000000  0.72487850  1
  Zr  Zr15_0  1  0.00000000  0.00000000  0.24999600  1
  Zr  Zr15_1  1  0.00000000  0.00000000  0.74999600  1
  Zr  Zr15_2  1  1.00000000  0.50000000  0.24999600  1
  Zr  Zr15_3  1  1.00000000  0.50000000  0.74999600  1
  Zr  Zr15_4  1  0.50000000  0.00000000  0.24999600  1
  Zr  Zr15_5  1  0.50000000  0.00000000  0.74999600  1
  Zr  Zr15_6  1  0.50000000  0.50000000  0.24999600  1
  Zr  Zr15_7  1  0.50000000  0.50000000  0.74999600  1
  Zr  Zr16_0  1  0.00000000  0.00000000  0.29999900  1
  Zr  Zr16_1  1  0.00000000  0.00000000  0.79999900  1
  Zr  Zr16_2  1  1.00000000  0.50000000  0.29999900  1
  Zr  Zr16_3  1  1.00000000  0.50000000  0.79999900  1
  Zr  Zr16_4  1  0.50000000  0.00000000  0.29999900  1
  Zr  Zr16_5  1  0.50000000  0.00000000  0.79999900  1
  Zr  Zr16_6  1  0.50000000  0.50000000  0.29999900  1
  Zr  Zr16_7  1  0.50000000  0.50000000  0.79999900  1
  Zr  Zr17_0  1  0.00000000  0.00000000  0.31250100  1
  Zr  Zr17_1  1  0.00000000  0.00000000  0.81250100  1
  Zr  Zr17_2  1  1.00000000  0.50000000  0.31250100  1
  Zr  Zr17_3  1  1.00000000  0.50000000  0.81250100  1
  Zr  Zr17_4  1  0.50000000  0.00000000  0.31250100  1
  Zr  Zr17_5  1  0.50000000  0.00000000  0.81250100  1
  Zr  Zr17_6  1  0.50000000  0.50000000  0.31250100  1
  Zr  Zr17_7  1  0.50000000  0.50000000  0.81250100  1
  Zr  Zr18_0  1  0.00000000  0.00000000  0.35000150  1
  Zr  Zr18_1  1  0.00000000  0.00000000  0.85000150  1
  Zr  Zr18_2  1  1.00000000  0.50000000  0.35000150  1
  Zr  Zr18_3  1  1.00000000  0.50000000  0.85000150  1
  Zr  Zr18_4  1  0.50000000  0.00000000  0.35000150  1
  Zr  Zr18_5  1  0.50000000  0.00000000  0.85000150  1
  Zr  Zr18_6  1  0.50000000  0.50000000  0.35000150  1
  Zr  Zr18_7  1  0.50000000  0.50000000  0.85000150  1
  Zr  Zr19_0  1  0.00000000  0.00000000  0.38750150  1
  Zr  Zr19_1  1  0.00000000  0.00000000  0.88750150  1
  Zr  Zr19_2  1  1.00000000  0.50000000  0.38750150  1
  Zr  Zr19_3  1  1.00000000  0.50000000  0.88750150  1
  Zr  Zr19_4  1  0.50000000  0.00000000  0.38750150  1
  Zr  Zr19_5  1  0.50000000  0.00000000  0.88750150  1
  Zr  Zr19_6  1  0.50000000  0.50000000  0.38750150  1
  Zr  Zr19_7  1  0.50000000  0.50000000  0.88750150  1
  Zr  Zr20_0  1  0.00000000  0.00000000  0.40000300  1
  Zr  Zr20_1  1  0.00000000  0.00000000  0.90000300  1
  Zr  Zr20_2  1  1.00000000  0.50000000  0.40000300  1
  Zr  Zr20_3  1  1.00000000  0.50000000  0.90000300  1
  Zr  Zr20_4  1  0.50000000  0.00000000  0.40000300  1
  Zr  Zr20_5  1  0.50000000  0.00000000  0.90000300  1
  Zr  Zr20_6  1  0.50000000  0.50000000  0.40000300  1
  Zr  Zr20_7  1  0.50000000  0.50000000  0.90000300  1
  Zr  Zr21_0  1  0.00000000  0.00000000  0.41250150  1
  Zr  Zr21_1  1  0.00000000  0.00000000  0.91250150  1
  Zr  Zr21_2  1  1.00000000  0.50000000  0.41250150  1
  Zr  Zr21_3  1  1.00000000  0.50000000  0.91250150  1
  Zr  Zr21_4  1  0.50000000  0.00000000  0.41250150  1
  Zr  Zr21_5  1  0.50000000  0.00000000  0.91250150  1
  Zr  Zr21_6  1  0.50000000  0.50000000  0.41250150  1
  Zr  Zr21_7  1  0.50000000  0.50000000  0.91250150  1
  Zr  Zr22_0  1  0.00000000  0.00000000  0.42500250  1
  Zr  Zr22_1  1  0.00000000  0.00000000  0.92500250  1
  Zr  Zr22_2  1  1.00000000  0.50000000  0.42500250  1
  Zr  Zr22_3  1  1.00000000  0.50000000  0.92500250  1
  Zr  Zr22_4  1  0.50000000  0.00000000  0.42500250  1
  Zr  Zr22_5  1  0.50000000  0.00000000  0.92500250  1
  Zr  Zr22_6  1  0.50000000  0.50000000  0.42500250  1
  Zr  Zr22_7  1  0.50000000  0.50000000  0.92500250  1
  Zr  Zr23_0  1  0.00000000  0.00000000  0.43749850  1
  Zr  Zr23_1  1  0.00000000  0.00000000  0.93749850  1
  Zr  Zr23_2  1  1.00000000  0.50000000  0.43749850  1
  Zr  Zr23_3  1  1.00000000  0.50000000  0.93749850  1
  Zr  Zr23_4  1  0.50000000  0.00000000  0.43749850  1
  Zr  Zr23_5  1  0.50000000  0.00000000  0.93749850  1
  Zr  Zr23_6  1  0.50000000  0.50000000  0.43749850  1
  Zr  Zr23_7  1  0.50000000  0.50000000  0.93749850  1
  Zr  Zr24_0  1  0.00000000  0.00000000  0.45000150  1
  Zr  Zr24_1  1  0.00000000  0.00000000  0.95000150  1
  Zr  Zr24_2  1  1.00000000  0.50000000  0.45000150  1
  Zr  Zr24_3  1  1.00000000  0.50000000  0.95000150  1
  Zr  Zr24_4  1  0.50000000  0.00000000  0.45000150  1
  Zr  Zr24_5  1  0.50000000  0.00000000  0.95000150  1
  Zr  Zr24_6  1  0.50000000  0.50000000  0.45000150  1
  Zr  Zr24_7  1  0.50000000  0.50000000  0.95000150  1
  Zr  Zr25_0  1  0.00000000  0.00000000  0.48784900  1
  Zr  Zr25_1  1  0.00000000  0.00000000  0.98784900  1
  Zr  Zr25_2  1  1.00000000  0.50000000  0.48784900  1
  Zr  Zr25_3  1  1.00000000  0.50000000  0.98784900  1
  Zr  Zr25_4  1  0.50000000  0.00000000  0.48784900  1
  Zr  Zr25_5  1  0.50000000  0.00000000  0.98784900  1
  Zr  Zr25_6  1  0.50000000  0.50000000  0.48784900  1
  Zr  Zr25_7  1  0.50000000  0.50000000  0.98784900  1
  Zr  Zr26_0  1  0.00000000  0.00000000  0.00065850  1
  Zr  Zr26_1  1  0.00000000  0.00000000  0.50065850  1
  Zr  Zr26_2  1  1.00000000  0.50000000  0.00065850  1
  Zr  Zr26_3  1  1.00000000  0.50000000  0.50065850  1
  Zr  Zr26_4  1  0.50000000  0.00000000  0.00065850  1
  Zr  Zr26_5  1  0.50000000  0.00000000  0.50065850  1
  Zr  Zr26_6  1  0.50000000  0.50000000  0.00065850  1
  Zr  Zr26_7  1  0.50000000  0.50000000  0.50065850  1
  Zr  Zr27_0  1  0.00000000  0.00000000  0.23747350  1
  Zr  Zr27_1  1  0.00000000  0.00000000  0.73747350  1
  Zr  Zr27_2  1  1.00000000  0.50000000  0.23747350  1
  Zr  Zr27_3  1  1.00000000  0.50000000  0.73747350  1
  Zr  Zr27_4  1  0.50000000  0.00000000  0.23747350  1
  Zr  Zr27_5  1  0.50000000  0.00000000  0.73747350  1
  Zr  Zr27_6  1  0.50000000  0.50000000  0.23747350  1
  Zr  Zr27_7  1  0.50000000  0.50000000  0.73747350  1
  Zr  Zr28_0  1  0.00000000  0.00000000  0.28750000  1
  Zr  Zr28_1  1  0.00000000  0.00000000  0.78750000  1
  Zr  Zr28_2  1  1.00000000  0.50000000  0.28750000  1
  Zr  Zr28_3  1  1.00000000  0.50000000  0.78750000  1
  Zr  Zr28_4  1  0.50000000  0.00000000  0.28750000  1
  Zr  Zr28_5  1  0.50000000  0.00000000  0.78750000  1
  Zr  Zr28_6  1  0.50000000  0.50000000  0.28750000  1
  Zr  Zr28_7  1  0.50000000  0.50000000  0.78750000  1
  Zr  Zr29_0  1  0.00000000  0.00000000  0.33750100  1
  Zr  Zr29_1  1  0.00000000  0.00000000  0.83750100  1
  Zr  Zr29_2  1  1.00000000  0.50000000  0.33750100  1
  Zr  Zr29_3  1  1.00000000  0.50000000  0.83750100  1
  Zr  Zr29_4  1  0.50000000  0.00000000  0.33750100  1
  Zr  Zr29_5  1  0.50000000  0.00000000  0.83750100  1
  Zr  Zr29_6  1  0.50000000  0.50000000  0.33750100  1
  Zr  Zr29_7  1  0.50000000  0.50000000  0.83750100  1
  Zr  Zr30_0  1  0.00000000  0.00000000  0.47512150  1
  Zr  Zr30_1  1  0.00000000  0.00000000  0.97512150  1
  Zr  Zr30_2  1  1.00000000  0.50000000  0.47512150  1
  Zr  Zr30_3  1  1.00000000  0.50000000  0.97512150  1
  Zr  Zr30_4  1  0.50000000  0.00000000  0.47512150  1
  Zr  Zr30_5  1  0.50000000  0.00000000  0.97512150  1
  Zr  Zr30_6  1  0.50000000  0.50000000  0.47512150  1
  Zr  Zr30_7  1  0.50000000  0.50000000  0.97512150  1
  Zr  Zr31_0  1  0.00000000  0.00000000  0.13716300  1
  Zr  Zr31_1  1  0.00000000  0.00000000  0.63716300  1
  Zr  Zr31_2  1  1.00000000  0.50000000  0.13716300  1
  Zr  Zr31_3  1  1.00000000  0.50000000  0.63716300  1
  Zr  Zr31_4  1  0.50000000  0.00000000  0.13716300  1
  Zr  Zr31_5  1  0.50000000  0.00000000  0.63716300  1
  Zr  Zr31_6  1  0.50000000  0.50000000  0.13716300  1
  Zr  Zr31_7  1  0.50000000  0.50000000  0.63716300  1
  Zr  Zr32_0  1  0.00000000  0.00000000  0.16259300  1
  Zr  Zr32_1  1  0.00000000  0.00000000  0.66259300  1
  Zr  Zr32_2  1  1.00000000  0.50000000  0.16259300  1
  Zr  Zr32_3  1  1.00000000  0.50000000  0.66259300  1
  Zr  Zr32_4  1  0.50000000  0.00000000  0.16259300  1
  Zr  Zr32_5  1  0.50000000  0.00000000  0.66259300  1
  Zr  Zr32_6  1  0.50000000  0.50000000  0.16259300  1
  Zr  Zr32_7  1  0.50000000  0.50000000  0.66259300  1
  Zr  Zr33_0  1  0.00000000  0.00000000  0.18761050  1
  Zr  Zr33_1  1  0.00000000  0.00000000  0.68761050  1
  Zr  Zr33_2  1  1.00000000  0.50000000  0.18761050  1
  Zr  Zr33_3  1  1.00000000  0.50000000  0.68761050  1
  Zr  Zr33_4  1  0.50000000  0.00000000  0.18761050  1
  Zr  Zr33_5  1  0.50000000  0.00000000  0.68761050  1
  Zr  Zr33_6  1  0.50000000  0.50000000  0.18761050  1
  Zr  Zr33_7  1  0.50000000  0.50000000  0.68761050  1
  Zr  Zr34_0  1  0.00000000  0.00000000  0.26249950  1
  Zr  Zr34_1  1  0.00000000  0.00000000  0.76249950  1
  Zr  Zr34_2  1  1.00000000  0.50000000  0.26249950  1
  Zr  Zr34_3  1  1.00000000  0.50000000  0.76249950  1
  Zr  Zr34_4  1  0.50000000  0.00000000  0.26249950  1
  Zr  Zr34_5  1  0.50000000  0.00000000  0.76249950  1
  Zr  Zr34_6  1  0.50000000  0.50000000  0.26249950  1
  Zr  Zr34_7  1  0.50000000  0.50000000  0.76249950  1
  Zr  Zr35_0  1  0.00000000  0.00000000  0.27499750  1
  Zr  Zr35_1  1  0.00000000  0.00000000  0.77499750  1
  Zr  Zr35_2  1  1.00000000  0.50000000  0.27499750  1
  Zr  Zr35_3  1  1.00000000  0.50000000  0.77499750  1
  Zr  Zr35_4  1  0.50000000  0.00000000  0.27499750  1
  Zr  Zr35_5  1  0.50000000  0.00000000  0.77499750  1
  Zr  Zr35_6  1  0.50000000  0.50000000  0.27499750  1
  Zr  Zr35_7  1  0.50000000  0.50000000  0.77499750  1
  Zr  Zr36_0  1  0.00000000  0.00000000  0.32500050  1
  Zr  Zr36_1  1  0.00000000  0.00000000  0.82500050  1
  Zr  Zr36_2  1  1.00000000  0.50000000  0.32500050  1
  Zr  Zr36_3  1  1.00000000  0.50000000  0.82500050  1
  Zr  Zr36_4  1  0.50000000  0.00000000  0.32500050  1
  Zr  Zr36_5  1  0.50000000  0.00000000  0.82500050  1
  Zr  Zr36_6  1  0.50000000  0.50000000  0.32500050  1
  Zr  Zr36_7  1  0.50000000  0.50000000  0.82500050  1
  Zr  Zr37_0  1  0.00000000  0.00000000  0.36250150  1
  Zr  Zr37_1  1  0.00000000  0.00000000  0.86250150  1
  Zr  Zr37_2  1  1.00000000  0.50000000  0.36250150  1
  Zr  Zr37_3  1  1.00000000  0.50000000  0.86250150  1
  Zr  Zr37_4  1  0.50000000  0.00000000  0.36250150  1
  Zr  Zr37_5  1  0.50000000  0.00000000  0.86250150  1
  Zr  Zr37_6  1  0.50000000  0.50000000  0.36250150  1
  Zr  Zr37_7  1  0.50000000  0.50000000  0.86250150  1
  Zr  Zr38_0  1  0.00000000  0.00000000  0.37500200  1
  Zr  Zr38_1  1  0.00000000  0.00000000  0.87500200  1
  Zr  Zr38_2  1  1.00000000  0.50000000  0.37500200  1
  Zr  Zr38_3  1  1.00000000  0.50000000  0.87500200  1
  Zr  Zr38_4  1  0.50000000  0.00000000  0.37500200  1
  Zr  Zr38_5  1  0.50000000  0.00000000  0.87500200  1
  Zr  Zr38_6  1  0.50000000  0.50000000  0.37500200  1
  Zr  Zr38_7  1  0.50000000  0.50000000  0.87500200  1
  Zr  Zr39_0  1  0.00000000  0.00000000  0.46252500  1
  Zr  Zr39_1  1  0.00000000  0.00000000  0.96252500  1
  Zr  Zr39_2  1  1.00000000  0.50000000  0.46252500  1
  Zr  Zr39_3  1  1.00000000  0.50000000  0.96252500  1
  Zr  Zr39_4  1  0.50000000  0.00000000  0.46252500  1
  Zr  Zr39_5  1  0.50000000  0.00000000  0.96252500  1
  Zr  Zr39_6  1  0.50000000  0.50000000  0.46252500  1
  Zr  Zr39_7  1  0.50000000  0.50000000  0.96252500  1
  S  S0_0  1  0.16666650  0.33333350  0.01897100  1
  S  S0_1  1  0.16666650  0.33333350  0.51897100  1
  S  S0_2  1  0.16666650  0.83333350  0.01897100  1
  S  S0_3  1  0.16666650  0.83333350  0.51897100  1
  S  S0_4  1  0.66666650  0.33333350  0.01897100  1
  S  S0_5  1  0.66666650  0.33333350  0.51897100  1
  S  S0_6  1  0.66666650  0.83333350  0.01897100  1
  S  S0_7  1  0.66666650  0.83333350  0.51897100  1
  S  S1_0  1  0.16666650  0.33333350  0.15607250  1
  S  S1_1  1  0.16666650  0.33333350  0.65607250  1
  S  S1_2  1  0.16666650  0.83333350  0.15607250  1
  S  S1_3  1  0.16666650  0.83333350  0.65607250  1
  S  S1_4  1  0.66666650  0.33333350  0.15607250  1
  S  S1_5  1  0.66666650  0.33333350  0.65607250  1
  S  S1_6  1  0.66666650  0.83333350  0.15607250  1
  S  S1_7  1  0.66666650  0.83333350  0.65607250  1
  S  S2_0  1  0.16666650  0.33333350  0.18120000  1
  S  S2_1  1  0.16666650  0.33333350  0.68120000  1
  S  S2_2  1  0.16666650  0.83333350  0.18120000  1
  S  S2_3  1  0.16666650  0.83333350  0.68120000  1
  S  S2_4  1  0.66666650  0.33333350  0.18120000  1
  S  S2_5  1  0.66666650  0.33333350  0.68120000  1
  S  S2_6  1  0.66666650  0.83333350  0.18120000  1
  S  S2_7  1  0.66666650  0.83333350  0.68120000  1
  S  S3_0  1  0.16666650  0.33333350  0.21854300  1
  S  S3_1  1  0.16666650  0.33333350  0.71854300  1
  S  S3_2  1  0.16666650  0.83333350  0.21854300  1
  S  S3_3  1  0.16666650  0.83333350  0.71854300  1
  S  S3_4  1  0.66666650  0.33333350  0.21854300  1
  S  S3_5  1  0.66666650  0.33333350  0.71854300  1
  S  S3_6  1  0.66666650  0.83333350  0.21854300  1
  S  S3_7  1  0.66666650  0.83333350  0.71854300  1
  S  S4_0  1  0.16666650  0.33333350  0.20575650  1
  S  S4_1  1  0.16666650  0.33333350  0.70575650  1
  S  S4_2  1  0.16666650  0.83333350  0.20575650  1
  S  S4_3  1  0.16666650  0.83333350  0.70575650  1
  S  S4_4  1  0.66666650  0.33333350  0.20575650  1
  S  S4_5  1  0.66666650  0.33333350  0.70575650  1
  S  S4_6  1  0.66666650  0.83333350  0.20575650  1
  S  S4_7  1  0.66666650  0.83333350  0.70575650  1
  S  S5_0  1  0.16666650  0.33333350  0.23119250  1
  S  S5_1  1  0.16666650  0.33333350  0.73119250  1
  S  S5_2  1  0.16666650  0.83333350  0.23119250  1
  S  S5_3  1  0.16666650  0.83333350  0.73119250  1
  S  S5_4  1  0.66666650  0.33333350  0.23119250  1
  S  S5_5  1  0.66666650  0.33333350  0.73119250  1
  S  S5_6  1  0.66666650  0.83333350  0.23119250  1
  S  S5_7  1  0.66666650  0.83333350  0.73119250  1
  S  S6_0  1  0.16666650  0.33333350  0.24374100  1
  S  S6_1  1  0.16666650  0.33333350  0.74374100  1
  S  S6_2  1  0.16666650  0.83333350  0.24374100  1
  S  S6_3  1  0.16666650  0.83333350  0.74374100  1
  S  S6_4  1  0.66666650  0.33333350  0.24374100  1
  S  S6_5  1  0.66666650  0.33333350  0.74374100  1
  S  S6_6  1  0.66666650  0.83333350  0.24374100  1
  S  S6_7  1  0.66666650  0.83333350  0.74374100  1
  S  S7_0  1  0.16666650  0.33333350  0.25624750  1
  S  S7_1  1  0.16666650  0.33333350  0.75624750  1
  S  S7_2  1  0.16666650  0.83333350  0.25624750  1
  S  S7_3  1  0.16666650  0.83333350  0.75624750  1
  S  S7_4  1  0.66666650  0.33333350  0.25624750  1
  S  S7_5  1  0.66666650  0.33333350  0.75624750  1
  S  S7_6  1  0.66666650  0.83333350  0.25624750  1
  S  S7_7  1  0.66666650  0.83333350  0.75624750  1
  S  S8_0  1  0.16666650  0.33333350  0.28124800  1
  S  S8_1  1  0.16666650  0.33333350  0.78124800  1
  S  S8_2  1  0.16666650  0.83333350  0.28124800  1
  S  S8_3  1  0.16666650  0.83333350  0.78124800  1
  S  S8_4  1  0.66666650  0.33333350  0.28124800  1
  S  S8_5  1  0.66666650  0.33333350  0.78124800  1
  S  S8_6  1  0.66666650  0.83333350  0.28124800  1
  S  S8_7  1  0.66666650  0.83333350  0.78124800  1
  S  S9_0  1  0.16666650  0.33333350  0.26874750  1
  S  S9_1  1  0.16666650  0.33333350  0.76874750  1
  S  S9_2  1  0.16666650  0.83333350  0.26874750  1
  S  S9_3  1  0.16666650  0.83333350  0.76874750  1
  S  S9_4  1  0.66666650  0.33333350  0.26874750  1
  S  S9_5  1  0.66666650  0.33333350  0.76874750  1
  S  S9_6  1  0.66666650  0.83333350  0.26874750  1
  S  S9_7  1  0.66666650  0.83333350  0.76874750  1
  S  S10_0  1  0.16666650  0.33333350  0.29374850  1
  S  S10_1  1  0.16666650  0.33333350  0.79374850  1
  S  S10_2  1  0.16666650  0.83333350  0.29374850  1
  S  S10_3  1  0.16666650  0.83333350  0.79374850  1
  S  S10_4  1  0.66666650  0.33333350  0.29374850  1
  S  S10_5  1  0.66666650  0.33333350  0.79374850  1
  S  S10_6  1  0.66666650  0.83333350  0.29374850  1
  S  S10_7  1  0.66666650  0.83333350  0.79374850  1
  S  S11_0  1  0.16666650  0.33333350  0.30624950  1
  S  S11_1  1  0.16666650  0.33333350  0.80624950  1
  S  S11_2  1  0.16666650  0.83333350  0.30624950  1
  S  S11_3  1  0.16666650  0.83333350  0.80624950  1
  S  S11_4  1  0.66666650  0.33333350  0.30624950  1
  S  S11_5  1  0.66666650  0.33333350  0.80624950  1
  S  S11_6  1  0.66666650  0.83333350  0.30624950  1
  S  S11_7  1  0.66666650  0.83333350  0.80624950  1
  S  S12_0  1  0.16666650  0.33333350  0.31875100  1
  S  S12_1  1  0.16666650  0.33333350  0.81875100  1
  S  S12_2  1  0.16666650  0.83333350  0.31875100  1
  S  S12_3  1  0.16666650  0.83333350  0.81875100  1
  S  S12_4  1  0.66666650  0.33333350  0.31875100  1
  S  S12_5  1  0.66666650  0.33333350  0.81875100  1
  S  S12_6  1  0.66666650  0.83333350  0.31875100  1
  S  S12_7  1  0.66666650  0.83333350  0.81875100  1
  S  S13_0  1  0.16666650  0.33333350  0.34375100  1
  S  S13_1  1  0.16666650  0.33333350  0.84375100  1
  S  S13_2  1  0.16666650  0.83333350  0.34375100  1
  S  S13_3  1  0.16666650  0.83333350  0.84375100  1
  S  S13_4  1  0.66666650  0.33333350  0.34375100  1
  S  S13_5  1  0.66666650  0.33333350  0.84375100  1
  S  S13_6  1  0.66666650  0.83333350  0.34375100  1
  S  S13_7  1  0.66666650  0.83333350  0.84375100  1
  S  S14_0  1  0.16666650  0.33333350  0.33125100  1
  S  S14_1  1  0.16666650  0.33333350  0.83125100  1
  S  S14_2  1  0.16666650  0.83333350  0.33125100  1
  S  S14_3  1  0.16666650  0.83333350  0.83125100  1
  S  S14_4  1  0.66666650  0.33333350  0.33125100  1
  S  S14_5  1  0.66666650  0.33333350  0.83125100  1
  S  S14_6  1  0.66666650  0.83333350  0.33125100  1
  S  S14_7  1  0.66666650  0.83333350  0.83125100  1
  S  S15_0  1  0.16666650  0.33333350  0.35625050  1
  S  S15_1  1  0.16666650  0.33333350  0.85625050  1
  S  S15_2  1  0.16666650  0.83333350  0.35625050  1
  S  S15_3  1  0.16666650  0.83333350  0.85625050  1
  S  S15_4  1  0.66666650  0.33333350  0.35625050  1
  S  S15_5  1  0.66666650  0.33333350  0.85625050  1
  S  S15_6  1  0.66666650  0.83333350  0.35625050  1
  S  S15_7  1  0.66666650  0.83333350  0.85625050  1
  S  S16_0  1  0.16666650  0.33333350  0.36875200  1
  S  S16_1  1  0.16666650  0.33333350  0.86875200  1
  S  S16_2  1  0.16666650  0.83333350  0.36875200  1
  S  S16_3  1  0.16666650  0.83333350  0.86875200  1
  S  S16_4  1  0.66666650  0.33333350  0.36875200  1
  S  S16_5  1  0.66666650  0.33333350  0.86875200  1
  S  S16_6  1  0.66666650  0.83333350  0.36875200  1
  S  S16_7  1  0.66666650  0.83333350  0.86875200  1
  S  S17_0  1  0.16666650  0.33333350  0.38125200  1
  S  S17_1  1  0.16666650  0.33333350  0.88125200  1
  S  S17_2  1  0.16666650  0.83333350  0.38125200  1
  S  S17_3  1  0.16666650  0.83333350  0.88125200  1
  S  S17_4  1  0.66666650  0.33333350  0.38125200  1
  S  S17_5  1  0.66666650  0.33333350  0.88125200  1
  S  S17_6  1  0.66666650  0.83333350  0.38125200  1
  S  S17_7  1  0.66666650  0.83333350  0.88125200  1
  S  S18_0  1  0.16666650  0.33333350  0.39375250  1
  S  S18_1  1  0.16666650  0.33333350  0.89375250  1
  S  S18_2  1  0.16666650  0.83333350  0.39375250  1
  S  S18_3  1  0.16666650  0.83333350  0.89375250  1
  S  S18_4  1  0.66666650  0.33333350  0.39375250  1
  S  S18_5  1  0.66666650  0.33333350  0.89375250  1
  S  S18_6  1  0.66666650  0.83333350  0.39375250  1
  S  S18_7  1  0.66666650  0.83333350  0.89375250  1
  S  S19_0  1  0.16666650  0.33333350  0.40625200  1
  S  S19_1  1  0.16666650  0.33333350  0.90625200  1
  S  S19_2  1  0.16666650  0.83333350  0.40625200  1
  S  S19_3  1  0.16666650  0.83333350  0.90625200  1
  S  S19_4  1  0.66666650  0.33333350  0.40625200  1
  S  S19_5  1  0.66666650  0.33333350  0.90625200  1
  S  S19_6  1  0.66666650  0.83333350  0.40625200  1
  S  S19_7  1  0.66666650  0.83333350  0.90625200  1
  S  S20_0  1  0.16666650  0.33333350  0.41875150  1
  S  S20_1  1  0.16666650  0.33333350  0.91875150  1
  S  S20_2  1  0.16666650  0.83333350  0.41875150  1
  S  S20_3  1  0.16666650  0.83333350  0.91875150  1
  S  S20_4  1  0.66666650  0.33333350  0.41875150  1
  S  S20_5  1  0.66666650  0.33333350  0.91875150  1
  S  S20_6  1  0.66666650  0.83333350  0.41875150  1
  S  S20_7  1  0.66666650  0.83333350  0.91875150  1
  S  S21_0  1  0.16666650  0.33333350  0.43125150  1
  S  S21_1  1  0.16666650  0.33333350  0.93125150  1
  S  S21_2  1  0.16666650  0.83333350  0.43125150  1
  S  S21_3  1  0.16666650  0.83333350  0.93125150  1
  S  S21_4  1  0.66666650  0.33333350  0.43125150  1
  S  S21_5  1  0.66666650  0.33333350  0.93125150  1
  S  S21_6  1  0.66666650  0.83333350  0.43125150  1
  S  S21_7  1  0.66666650  0.83333350  0.93125150  1
  S  S22_0  1  0.16666650  0.33333350  0.45625650  1
  S  S22_1  1  0.16666650  0.33333350  0.95625650  1
  S  S22_2  1  0.16666650  0.83333350  0.45625650  1
  S  S22_3  1  0.16666650  0.83333350  0.95625650  1
  S  S22_4  1  0.66666650  0.33333350  0.45625650  1
  S  S22_5  1  0.66666650  0.33333350  0.95625650  1
  S  S22_6  1  0.66666650  0.83333350  0.45625650  1
  S  S22_7  1  0.66666650  0.83333350  0.95625650  1
  S  S23_0  1  0.16666650  0.33333350  0.44374950  1
  S  S23_1  1  0.16666650  0.33333350  0.94374950  1
  S  S23_2  1  0.16666650  0.83333350  0.44374950  1
  S  S23_3  1  0.16666650  0.83333350  0.94374950  1
  S  S23_4  1  0.66666650  0.33333350  0.44374950  1
  S  S23_5  1  0.66666650  0.33333350  0.94374950  1
  S  S23_6  1  0.66666650  0.83333350  0.44374950  1
  S  S23_7  1  0.66666650  0.83333350  0.94374950  1
  S  S24_0  1  0.16666650  0.33333350  0.46880350  1
  S  S24_1  1  0.16666650  0.33333350  0.96880350  1
  S  S24_2  1  0.16666650  0.83333350  0.46880350  1
  S  S24_3  1  0.16666650  0.83333350  0.96880350  1
  S  S24_4  1  0.66666650  0.33333350  0.46880350  1
  S  S24_5  1  0.66666650  0.33333350  0.96880350  1
  S  S24_6  1  0.66666650  0.83333350  0.46880350  1
  S  S24_7  1  0.66666650  0.83333350  0.96880350  1
  S  S25_0  1  0.16666650  0.33333350  0.48145750  1
  S  S25_1  1  0.16666650  0.33333350  0.98145750  1
  S  S25_2  1  0.16666650  0.83333350  0.48145750  1
  S  S25_3  1  0.16666650  0.83333350  0.98145750  1
  S  S25_4  1  0.66666650  0.33333350  0.48145750  1
  S  S25_5  1  0.66666650  0.33333350  0.98145750  1
  S  S25_6  1  0.66666650  0.83333350  0.48145750  1
  S  S25_7  1  0.66666650  0.83333350  0.98145750  1
  S  S26_0  1  0.16666650  0.33333350  0.49425250  1
  S  S26_1  1  0.16666650  0.33333350  0.99425250  1
  S  S26_2  1  0.16666650  0.83333350  0.49425250  1
  S  S26_3  1  0.16666650  0.83333350  0.99425250  1
  S  S26_4  1  0.66666650  0.33333350  0.49425250  1
  S  S26_5  1  0.66666650  0.33333350  0.99425250  1
  S  S26_6  1  0.66666650  0.83333350  0.49425250  1
  S  S26_7  1  0.66666650  0.83333350  0.99425250  1
loop_
_geom_bond_atom_site_label_1
_geom_bond_atom_site_label_2
_geom_bond_distance
_geom_bond_site_symmetry_2
Zr1_0 Zr2_0 3.391747 1_555
Zr1_1 Zr2_1 3.391747 1_555
Zr1_2 Zr2_2 3.391747 1_555
Zr1_3 Zr2_3 3.391747 1_555
Zr1_4 Zr2_4 3.391747 1_555
Zr1_5 Zr2_5 3.391747 1_555
Zr1_6 Zr2_6 3.391747 1_555
Zr1_7 Zr2_7 3.391747 1_555
Zr2_0 Zr3_0 3.357872 1_555
Zr2_0 Zr2_6 3.388608 1_555
Zr2_0 Zr2_6 3.388608 1_445
Zr2_0 Zr2_4 3.388608 1_555
Zr2_0 Zr2_4 3.388608 1_455
Zr2_0 Zr2_2 3.388608 1_445
Zr2_0 Zr2_2 3.388608 1_455
Zr2_1 Zr3_1 3.357872 1_555
Zr2_1 Zr2_7 3.388608 1_555
Zr2_1 Zr2_7 3.388608 1_445
Zr2_1 Zr2_5 3.388608 1_455
Zr2_1 Zr2_5 3.388608 1_555
Zr2_1 Zr2_3 3.388608 1_445
Zr2_1 Zr2_3 3.388608 1_455
Zr2_2 Zr3_2 3.357872 1_555
Zr2_2 Zr2_4 3.388608 1_555
Zr2_2 Zr2_4 3.388608 1_665
Zr2_2 Zr2_6 3.388608 1_555
Zr2_2 Zr2_6 3.388608 1_655
Zr2_3 Zr3_3 3.357872 1_555
Zr2_3 Zr2_5 3.388608 1_555
Zr2_3 Zr2_5 3.388608 1_665
Zr2_3 Zr2_7 3.388608 1_555
Zr2_3 Zr2_7 3.388608 1_655
Zr2_4 Zr3_4 3.357872 1_555
Zr2_4 Zr2_6 3.388608 1_545
Zr2_4 Zr2_6 3.388608 1_555
Zr2_5 Zr3_5 3.357872 1_555
Zr2_5 Zr2_7 3.388608 1_545
Zr2_5 Zr2_7 3.388608 1_555
Zr2_6 Zr3_6 3.357872 1_555
Zr2_7 Zr3_7 3.357872 1_555
Zr3_0 Zr3_6 3.388608 1_555
Zr3_0 Zr3_6 3.388608 1_445
Zr3_0 Zr3_4 3.388608 1_455
Zr3_0 Zr3_2 3.388608 1_445
Zr3_0 Zr3_4 3.388608 1_555
Zr3_0 Zr3_2 3.388608 1_455
Zr3_0 Zr4_0 3.425484 1_555
Zr3_1 Zr3_7 3.388608 1_555
Zr3_1 Zr3_7 3.388608 1_445
Zr3_1 Zr3_5 3.388608 1_555
Zr3_1 Zr3_3 3.388608 1_445
Zr3_1 Zr3_5 3.388608 1_455
Zr3_1 Zr3_3 3.388608 1_455
Zr3_1 Zr4_1 3.425484 1_555
Zr3_2 Zr3_4 3.388608 1_555
Zr3_2 Zr3_4 3.388608 1_665
Zr3_2 Zr3_6 3.388608 1_555
Zr3_2 Zr3_6 3.388608 1_655
Zr3_2 Zr4_2 3.425484 1_555
Zr3_3 Zr3_5 3.388608 1_555
Zr3_3 Zr3_5 3.388608 1_665
Zr3_3 Zr3_7 3.388608 1_555
Zr3_3 Zr3_7 3.388608 1_655
Zr3_3 Zr4_3 3.425484 1_555
Zr3_4 Zr3_6 3.388608 1_545
Zr3_4 Zr3_6 3.388608 1_555
Zr3_4 Zr4_4 3.425484 1_555
Zr3_5 Zr3_7 3.388608 1_545
Zr3_5 Zr3_7 3.388608 1_555
Zr3_5 Zr4_5 3.425484 1_555
Zr3_6 Zr4_6 3.425484 1_555
Zr3_7 Zr4_7 3.425484 1_555
Zr4_0 Zr4_6 3.388608 1_555
Zr4_0 Zr4_6 3.388608 1_445
Zr4_0 Zr4_4 3.388608 1_455
Zr4_0 Zr4_2 3.388608 1_445
Zr4_0 Zr4_4 3.388608 1_555
Zr4_0 Zr4_2 3.388608 1_455
Zr4_0 Zr5_0 3.446414 1_555
Zr4_1 Zr4_7 3.388608 1_555
Zr4_1 Zr4_7 3.388608 1_445
Zr4_1 Zr4_5 3.388608 1_455
Zr4_1 Zr4_5 3.388608 1_555
Zr4_1 Zr4_3 3.388608 1_445
Zr4_1 Zr4_3 3.388608 1_455
Zr4_1 Zr5_1 3.446414 1_555
Zr4_2 Zr4_4 3.388608 1_555
Zr4_2 Zr4_4 3.388608 1_665
Zr4_2 Zr4_6 3.388608 1_555
Zr4_2 Zr4_6 3.388608 1_655
Zr4_2 Zr5_2 3.446414 1_555
Zr4_3 Zr4_5 3.388608 1_555
Zr4_3 Zr4_5 3.388608 1_665
Zr4_3 Zr4_7 3.388608 1_555
Zr4_3 Zr4_7 3.388608 1_655
Zr4_3 Zr5_3 3.446414 1_555
Zr4_4 Zr4_6 3.388608 1_545
Zr4_4 Zr4_6 3.388608 1_555
Zr4_4 Zr5_4 3.446414 1_555
Zr4_5 Zr4_7 3.388608 1_545
Zr4_5 Zr4_7 3.388608 1_555
Zr4_5 Zr5_5 3.446414 1_555
Zr4_6 Zr5_6 3.446414 1_555
Zr4_7 Zr5_7 3.446414 1_555
Zr5_0 Zr5_6 3.388608 1_555
Zr5_0 Zr5_6 3.388608 1_445
Zr5_0 Zr5_2 3.388608 1_445
Zr5_0 Zr5_4 3.388608 1_455
Zr5_0 Zr5_4 3.388608 1_555
Zr5_0 Zr5_2 3.388608 1_455
Zr5_0 Zr6_0 3.445864 1_555
Zr5_1 Zr5_7 3.388608 1_555
Zr5_1 Zr5_7 3.388608 1_445
Zr5_1 Zr5_5 3.388608 1_555
Zr5_1 Zr5_5 3.388608 1_455
Zr5_1 Zr5_3 3.388608 1_445
Zr5_1 Zr5_3 3.388608 1_455
Zr5_1 Zr6_1 3.445864 1_555
Zr5_2 Zr5_4 3.388608 1_555
Zr5_2 Zr5_4 3.388608 1_665
Zr5_2 Zr5_6 3.388608 1_555
Zr5_2 Zr5_6 3.388608 1_655
Zr5_2 Zr6_2 3.445864 1_555
Zr5_3 Zr5_5 3.388608 1_555
Zr5_3 Zr5_5 3.388608 1_665
Zr5_3 Zr5_7 3.388608 1_555
Zr5_3 Zr5_7 3.388608 1_655
Zr5_3 Zr6_3 3.445864 1_555
Zr5_4 Zr5_6 3.388608 1_545
Zr5_4 Zr5_6 3.388608 1_555
Zr5_4 Zr6_4 3.445864 1_555
Zr5_5 Zr5_7 3.388608 1_545
Zr5_5 Zr5_7 3.388608 1_555
Zr5_5 Zr6_5 3.445864 1_555
Zr5_6 Zr6_6 3.445864 1_555
Zr5_7 Zr6_7 3.445864 1_555
Zr6_0 Zr6_6 3.388608 1_555
Zr6_0 Zr6_6 3.388608 1_445
Zr6_0 Zr6_4 3.388608 1_455
Zr6_0 Zr6_4 3.388608 1_555
Zr6_0 Zr6_2 3.388608 1_445
Zr6_0 Zr6_2 3.388608 1_455
Zr6_0 Zr7_0 3.448205 1_555
Zr6_1 Zr6_7 3.388608 1_555
Zr6_1 Zr6_7 3.388608 1_445
Zr6_1 Zr6_3 3.388608 1_445
Zr6_1 Zr6_5 3.388608 1_455
Zr6_1 Zr6_5 3.388608 1_555
Zr6_1 Zr6_3 3.388608 1_455
Zr6_1 Zr7_1 3.448205 1_555
Zr6_2 Zr6_4 3.388608 1_555
Zr6_2 Zr6_4 3.388608 1_665
Zr6_2 Zr6_6 3.388608 1_555
Zr6_2 Zr6_6 3.388608 1_655
Zr6_2 Zr7_2 3.448205 1_555
Zr6_3 Zr6_5 3.388608 1_555
Zr6_3 Zr6_5 3.388608 1_665
Zr6_3 Zr6_7 3.388608 1_555
Zr6_3 Zr6_7 3.388608 1_655
Zr6_3 Zr7_3 3.448205 1_555
Zr6_4 Zr6_6 3.388608 1_545
Zr6_4 Zr6_6 3.388608 1_555
Zr6_4 Zr7_4 3.448205 1_555
Zr6_5 Zr6_7 3.388608 1_545
Zr6_5 Zr6_7 3.388608 1_555
Zr6_5 Zr7_5 3.448205 1_555
Zr6_6 Zr7_6 3.448205 1_555
Zr6_7 Zr7_7 3.448205 1_555
Zr7_0 Zr7_6 3.388608 1_555
Zr7_0 Zr7_6 3.388608 1_445
Zr7_0 Zr7_4 3.388608 1_455
Zr7_0 Zr7_2 3.388608 1_445
Zr7_0 Zr7_4 3.388608 1_555
Zr7_0 Zr7_2 3.388608 1_455
Zr7_0 Zr8_0 3.448067 1_555
Zr7_1 Zr7_7 3.388608 1_555
Zr7_1 Zr7_7 3.388608 1_445
Zr7_1 Zr7_5 3.388608 1_555
Zr7_1 Zr7_3 3.388608 1_445
Zr7_1 Zr7_5 3.388608 1_455
Zr7_1 Zr7_3 3.388608 1_455
Zr7_1 Zr8_1 3.448067 1_555
Zr7_2 Zr7_4 3.388608 1_555
Zr7_2 Zr7_4 3.388608 1_665
Zr7_2 Zr7_6 3.388608 1_555
Zr7_2 Zr7_6 3.388608 1_655
Zr7_2 Zr8_2 3.448067 1_555
Zr7_3 Zr7_5 3.388608 1_555
Zr7_3 Zr7_5 3.388608 1_665
Zr7_3 Zr7_7 3.388608 1_555
Zr7_3 Zr7_7 3.388608 1_655
Zr7_3 Zr8_3 3.448067 1_555
Zr7_4 Zr7_6 3.388608 1_545
Zr7_4 Zr7_6 3.388608 1_555
Zr7_4 Zr8_4 3.448067 1_555
Zr7_5 Zr7_7 3.388608 1_545
Zr7_5 Zr7_7 3.388608 1_555
Zr7_5 Zr8_5 3.448067 1_555
Zr7_6 Zr8_6 3.448067 1_555
Zr7_7 Zr8_7 3.448067 1_555
Zr8_0 Zr8_6 3.388608 1_555
Zr8_0 Zr8_6 3.388608 1_445
Zr8_0 Zr8_4 3.388608 1_455
Zr8_0 Zr8_4 3.388608 1_555
Zr8_0 Zr8_2 3.388608 1_445
Zr8_0 Zr8_2 3.388608 1_455
Zr8_0 Zr9_0 3.424795 1_555
Zr8_1 Zr8_7 3.388608 1_555
Zr8_1 Zr8_7 3.388608 1_445
Zr8_1 Zr8_3 3.388608 1_445
Zr8_1 Zr8_5 3.388608 1_455
Zr8_1 Zr8_5 3.388608 1_555
Zr8_1 Zr8_3 3.388608 1_455
Zr8_1 Zr9_1 3.424795 1_555
Zr8_2 Zr8_4 3.388608 1_555
Zr8_2 Zr8_4 3.388608 1_665
Zr8_2 Zr8_6 3.388608 1_555
Zr8_2 Zr8_6 3.388608 1_655
Zr8_2 Zr9_2 3.424795 1_555
Zr8_3 Zr8_5 3.388608 1_555
Zr8_3 Zr8_5 3.388608 1_665
Zr8_3 Zr8_7 3.388608 1_555
Zr8_3 Zr8_7 3.388608 1_655
Zr8_3 Zr9_3 3.424795 1_555
Zr8_4 Zr8_6 3.388608 1_545
Zr8_4 Zr8_6 3.388608 1_555
Zr8_4 Zr9_4 3.424795 1_555
Zr8_5 Zr8_7 3.388608 1_545
Zr8_5 Zr8_7 3.388608 1_555
Zr8_5 Zr9_5 3.424795 1_555
Zr8_6 Zr9_6 3.424795 1_555
Zr8_7 Zr9_7 3.424795 1_555
Zr9_0 Zr9_6 3.388608 1_555
Zr9_0 Zr9_6 3.388608 1_445
Zr9_0 Zr9_2 3.388608 1_445
Zr9_0 Zr9_4 3.388608 1_455
Zr9_0 Zr9_4 3.388608 1_555
Zr9_0 Zr9_2 3.388608 1_455
Zr9_1 Zr9_7 3.388608 1_555
Zr9_1 Zr9_7 3.388608 1_445
Zr9_1 Zr9_5 3.388608 1_555
Zr9_1 Zr9_3 3.388608 1_445
Zr9_1 Zr9_5 3.388608 1_455
Zr9_1 Zr9_3 3.388608 1_455
Zr9_2 Zr9_4 3.388608 1_555
Zr9_2 Zr9_4 3.388608 1_665
Zr9_2 Zr9_6 3.388608 1_555
Zr9_2 Zr9_6 3.388608 1_655
Zr9_3 Zr9_5 3.388608 1_555
Zr9_3 Zr9_5 3.388608 1_665
Zr9_3 Zr9_7 3.388608 1_555
Zr9_3 Zr9_7 3.388608 1_655
Zr9_4 Zr9_6 3.388608 1_545
Zr9_4 Zr9_6 3.388608 1_555
Zr9_5 Zr9_7 3.388608 1_545
Zr9_5 Zr9_7 3.388608 1_555
Zr10_0 Zr31_0 3.397805 1_555
Zr10_1 Zr31_1 3.397805 1_555
Zr10_2 Zr31_2 3.397805 1_555
Zr10_3 Zr31_3 3.397805 1_555
Zr10_4 Zr31_4 3.397805 1_555
Zr10_5 Zr31_5 3.397805 1_555
Zr10_6 Zr31_6 3.397805 1_555
Zr10_7 Zr31_7 3.397805 1_555
Zr31_0 Zr9_0 3.358010 1_555
Zr31_0 Zr31_6 3.388608 1_555
Zr31_0 Zr31_6 3.388608 1_445
Zr31_0 Zr31_4 3.388608 1_555
Zr31_0 Zr31_2 3.388608 1_445
Zr31_0 Zr31_4 3.388608 1_455
Zr31_0 Zr31_2 3.388608 1_455
Zr31_1 Zr9_1 3.358010 1_555
Zr31_1 Zr31_7 3.388608 1_555
Zr31_1 Zr31_7 3.388608 1_445
Zr31_1 Zr31_3 3.388608 1_445
Zr31_1 Zr31_5 3.388608 1_455
Zr31_1 Zr31_5 3.388608 1_555
Zr31_1 Zr31_3 3.388608 1_455
Zr31_2 Zr9_2 3.358010 1_555
Zr31_2 Zr31_4 3.388608 1_555
Zr31_2 Zr31_4 3.388608 1_665
Zr31_2 Zr31_6 3.388608 1_555
Zr31_2 Zr31_6 3.388608 1_655
Zr31_3 Zr9_3 3.358010 1_555
Zr31_3 Zr31_5 3.388608 1_555
Zr31_3 Zr31_5 3.388608 1_665
Zr31_3 Zr31_7 3.388608 1_555
Zr31_3 Zr31_7 3.388608 1_655
Zr31_4 Zr9_4 3.358010 1_555
Zr31_4 Zr31_6 3.388608 1_545
Zr31_4 Zr31_6 3.388608 1_555
Zr31_5 Zr9_5 3.358010 1_555
Zr31_5 Zr31_7 3.388608 1_545
Zr31_5 Zr31_7 3.388608 1_555
Zr31_6 Zr9_6 3.358010 1_555
Zr31_7 Zr9_7 3.358010 1_555
S0_0 Zr0_2 2.645780 1_455
S0_0 Zr0_6 2.645782 1_555
S0_0 Zr0_0 2.645782 1_555
S0_0 Zr1_2 2.661315 1_455
S0_0 Zr1_6 2.661317 1_555
S0_0 Zr1_0 2.661317 1_555
S0_1 Zr0_3 2.645780 1_455
S0_1 Zr0_7 2.645782 1_555
S0_1 Zr0_1 2.645782 1_555
S0_1 Zr1_3 2.661315 1_455
S0_1 Zr1_7 2.661317 1_555
S0_1 Zr1_1 2.661317 1_555
S0_2 Zr0_0 2.645780 1_565
S0_2 Zr0_2 2.645782 1_455
S0_2 Zr0_4 2.645782 1_565
S0_2 Zr1_0 2.661315 1_565
S0_2 Zr1_4 2.661317 1_565
S0_2 Zr1_2 2.661317 1_455
S0_3 Zr0_1 2.645780 1_565
S0_3 Zr0_3 2.645782 1_455
S0_3 Zr0_5 2.645782 1_565
S0_3 Zr1_1 2.661315 1_565
S0_3 Zr1_5 2.661317 1_565
S0_3 Zr1_3 2.661317 1_455
S0_4 Zr0_6 2.645780 1_555
S0_4 Zr0_2 2.645782 1_555
S0_4 Zr0_4 2.645782 1_555
S0_4 Zr1_6 2.661315 1_555
S0_4 Zr1_2 2.661317 1_555
S0_4 Zr1_4 2.661317 1_555
S0_5 Zr0_7 2.645780 1_555
S0_5 Zr0_3 2.645782 1_555
S0_5 Zr0_5 2.645782 1_555
S0_5 Zr1_7 2.661315 1_555
S0_5 Zr1_3 2.661317 1_555
S0_5 Zr1_5 2.661317 1_555
S0_6 Zr0_4 2.645780 1_565
S0_6 Zr0_6 2.645782 1_555
S0_6 Zr0_0 2.645782 1_665
S0_6 Zr1_4 2.661315 1_565
S0_6 Zr1_6 2.661317 1_555
S0_6 Zr1_0 2.661317 1_665
S0_7 Zr0_5 2.645780 1_565
S0_7 Zr0_7 2.645782 1_555
S0_7 Zr0_1 2.645782 1_665
S0_7 Zr1_5 2.661315 1_565
S0_7 Zr1_7 2.661317 1_555
S0_7 Zr1_1 2.661317 1_665
S1_0 Zr32_2 2.655628 1_455
S1_0 Zr32_0 2.655630 1_555
S1_0 Zr32_6 2.655630 1_555
S1_0 Zr10_2 2.665240 1_455
S1_0 Zr10_6 2.665242 1_555
S1_0 Zr10_0 2.665242 1_555
S1_1 Zr32_3 2.655628 1_455
S1_1 Zr32_7 2.655630 1_555
S1_1 Zr32_1 2.655630 1_555
S1_1 Zr10_3 2.665240 1_455
S1_1 Zr10_7 2.665242 1_555
S1_1 Zr10_1 2.665242 1_555
S1_2 Zr32_0 2.655628 1_565
S1_2 Zr32_2 2.655630 1_455
S1_2 Zr32_4 2.655630 1_565
S1_2 Zr10_0 2.665240 1_565
S1_2 Zr10_4 2.665242 1_565
S1_2 Zr10_2 2.665242 1_455
S1_3 Zr32_1 2.655628 1_565
S1_3 Zr32_3 2.655630 1_455
S1_3 Zr32_5 2.655630 1_565
S1_3 Zr10_1 2.665240 1_565
S1_3 Zr10_3 2.665242 1_455
S1_3 Zr10_5 2.665242 1_565
S1_4 Zr32_6 2.655628 1_555
S1_4 Zr32_4 2.655630 1_555
S1_4 Zr32_2 2.655630 1_555
S1_4 Zr10_6 2.665240 1_555
S1_4 Zr10_2 2.665242 1_555
S1_4 Zr10_4 2.665242 1_555
S1_5 Zr32_7 2.655628 1_555
S1_5 Zr32_3 2.655630 1_555
S1_5 Zr32_5 2.655630 1_555
S1_5 Zr10_7 2.665240 1_555
S1_5 Zr10_3 2.665242 1_555
S1_5 Zr10_5 2.665242 1_555
S1_6 Zr32_4 2.655628 1_565
S1_6 Zr32_6 2.655630 1_555
S1_6 Zr32_0 2.655630 1_665
S1_6 Zr10_4 2.665240 1_565
S1_6 Zr10_6 2.665242 1_555
S1_6 Zr10_0 2.665242 1_665
S1_7 Zr32_5 2.655628 1_565
S1_7 Zr32_7 2.655630 1_555
S1_7 Zr32_1 2.655630 1_665
S1_7 Zr10_5 2.665240 1_565
S1_7 Zr10_7 2.665242 1_555
S1_7 Zr10_1 2.665242 1_665
S2_0 Zr33_2 2.635237 1_455
S2_0 Zr33_0 2.635239 1_555
S2_0 Zr33_6 2.635239 1_555
S2_0 Zr11_2 2.644297 1_455
S2_0 Zr11_0 2.644299 1_555
S2_0 Zr11_6 2.644299 1_555
S2_1 Zr33_3 2.635237 1_455
S2_1 Zr33_7 2.635239 1_555
S2_1 Zr33_1 2.635239 1_555
S2_1 Zr11_3 2.644297 1_455
S2_1 Zr11_7 2.644299 1_555
S2_1 Zr11_1 2.644299 1_555
S2_2 Zr33_0 2.635237 1_565
S2_2 Zr33_2 2.635239 1_455
S2_2 Zr33_4 2.635239 1_565
S2_2 Zr11_0 2.644297 1_565
S2_2 Zr11_4 2.644299 1_565
S2_2 Zr11_2 2.644299 1_455
S2_3 Zr33_1 2.635237 1_565
S2_3 Zr33_5 2.635239 1_565
S2_3 Zr33_3 2.635239 1_455
S2_3 Zr11_1 2.644297 1_565
S2_3 Zr11_3 2.644299 1_455
S2_3 Zr11_5 2.644299 1_565
S2_4 Zr33_6 2.635237 1_555
S2_4 Zr33_4 2.635239 1_555
S2_4 Zr33_2 2.635239 1_555
S2_4 Zr11_6 2.644297 1_555
S2_4 Zr11_4 2.644299 1_555
S2_4 Zr11_2 2.644299 1_555
S2_5 Zr33_7 2.635237 1_555
S2_5 Zr33_3 2.635239 1_555
S2_5 Zr33_5 2.635239 1_555
S2_5 Zr11_7 2.644297 1_555
S2_5 Zr11_3 2.644299 1_555
S2_5 Zr11_5 2.644299 1_555
S2_6 Zr33_4 2.635237 1_565
S2_6 Zr33_6 2.635239 1_555
S2_6 Zr33_0 2.635239 1_665
S2_6 Zr11_4 2.644297 1_565
S2_6 Zr11_6 2.644299 1_555
S2_6 Zr11_0 2.644299 1_665
S2_7 Zr33_5 2.635237 1_565
S2_7 Zr33_7 2.635239 1_555
S2_7 Zr33_1 2.635239 1_665
S2_7 Zr11_5 2.644297 1_565
S2_7 Zr11_7 2.644299 1_555
S2_7 Zr11_1 2.644299 1_665
S3_0 Zr14_2 2.621444 1_455
S3_0 Zr14_6 2.621446 1_555
S3_0 Zr14_0 2.621446 1_555
S3_0 Zr13_2 2.630905 1_455
S3_0 Zr13_6 2.630908 1_555
S3_0 Zr13_0 2.630908 1_555
S3_1 Zr14_3 2.621444 1_455
S3_1 Zr14_7 2.621446 1_555
S3_1 Zr14_1 2.621446 1_555
S3_1 Zr13_3 2.630905 1_455
S3_1 Zr13_7 2.630908 1_555
S3_1 Zr13_1 2.630908 1_555
S3_2 Zr14_0 2.621444 1_565
S3_2 Zr14_2 2.621446 1_455
S3_2 Zr14_4 2.621446 1_565
S3_2 Zr13_0 2.630905 1_565
S3_2 Zr13_2 2.630908 1_455
S3_2 Zr13_4 2.630908 1_565
S3_3 Zr14_1 2.621444 1_565
S3_3 Zr14_3 2.621446 1_455
S3_3 Zr14_5 2.621446 1_565
S3_3 Zr13_1 2.630905 1_565
S3_3 Zr13_5 2.630908 1_565
S3_3 Zr13_3 2.630908 1_455
S3_4 Zr14_6 2.621444 1_555
S3_4 Zr14_2 2.621446 1_555
S3_4 Zr14_4 2.621446 1_555
S3_4 Zr13_6 2.630905 1_555
S3_4 Zr13_4 2.630908 1_555
S3_4 Zr13_2 2.630908 1_555
S3_5 Zr14_7 2.621444 1_555
S3_5 Zr14_3 2.621446 1_555
S3_5 Zr14_5 2.621446 1_555
S3_5 Zr13_7 2.630905 1_555
S3_5 Zr13_5 2.630908 1_555
S3_5 Zr13_3 2.630908 1_555
S3_6 Zr14_4 2.621444 1_565
S3_6 Zr14_6 2.621446 1_555
S3_6 Zr14_0 2.621446 1_665
S3_6 Zr13_4 2.630905 1_565
S3_6 Zr13_6 2.630908 1_555
S3_6 Zr13_0 2.630908 1_665
S3_7 Zr14_5 2.621444 1_565
S3_7 Zr14_7 2.621446 1_555
S3_7 Zr14_1 2.621446 1_665
S3_7 Zr13_5 2.630905 1_565
S3_7 Zr13_7 2.630908 1_555
S3_7 Zr13_1 2.630908 1_665
S4_0 Zr12_2 2.632195 1_455
S4_0 Zr12_6 2.632197 1_555
S4_0 Zr12_0 2.632197 1_555
S4_0 Zr13_2 2.633208 1_455
S4_0 Zr13_6 2.633210 1_555
S4_0 Zr13_0 2.633210 1_555
S4_1 Zr12_3 2.632195 1_455
S4_1 Zr12_7 2.632197 1_555
S4_1 Zr12_1 2.632197 1_555
S4_1 Zr13_3 2.633208 1_455
S4_1 Zr13_7 2.633210 1_555
S4_1 Zr13_1 2.633210 1_555
S4_2 Zr12_0 2.632195 1_565
S4_2 Zr12_4 2.632197 1_565
S4_2 Zr12_2 2.632197 1_455
S4_2 Zr13_0 2.633208 1_565
S4_2 Zr13_2 2.633210 1_455
S4_2 Zr13_4 2.633210 1_565
S4_3 Zr12_1 2.632195 1_565
S4_3 Zr12_5 2.632197 1_565
S4_3 Zr12_3 2.632197 1_455
S4_3 Zr13_1 2.633208 1_565
S4_3 Zr13_5 2.633210 1_565
S4_3 Zr13_3 2.633210 1_455
S4_4 Zr12_6 2.632195 1_555
S4_4 Zr12_2 2.632197 1_555
S4_4 Zr12_4 2.632197 1_555
S4_4 Zr13_6 2.633208 1_555
S4_4 Zr13_2 2.633210 1_555
S4_4 Zr13_4 2.633210 1_555
S4_5 Zr12_7 2.632195 1_555
S4_5 Zr12_3 2.632197 1_555
S4_5 Zr12_5 2.632197 1_555
S4_5 Zr13_7 2.633208 1_555
S4_5 Zr13_5 2.633210 1_555
S4_5 Zr13_3 2.633210 1_555
S4_6 Zr12_4 2.632195 1_565
S4_6 Zr12_6 2.632197 1_555
S4_6 Zr12_0 2.632197 1_665
S4_6 Zr13_4 2.633208 1_565
S4_6 Zr13_6 2.633210 1_555
S4_6 Zr13_0 2.633210 1_665
S4_7 Zr12_5 2.632195 1_565
S4_7 Zr12_7 2.632197 1_555
S4_7 Zr12_1 2.632197 1_665
S4_7 Zr13_5 2.633208 1_565
S4_7 Zr13_7 2.633210 1_555
S4_7 Zr13_1 2.633210 1_665
S5_0 Zr27_2 2.611477 1_455
S5_0 Zr27_6 2.611480 1_555
S5_0 Zr27_0 2.611480 1_555
S5_0 Zr14_2 2.617506 1_455
S5_0 Zr14_6 2.617508 1_555
S5_0 Zr14_0 2.617508 1_555
S5_1 Zr27_3 2.611477 1_455
S5_1 Zr27_7 2.611480 1_555
S5_1 Zr27_1 2.611480 1_555
S5_1 Zr14_3 2.617506 1_455
S5_1 Zr14_7 2.617508 1_555
S5_1 Zr14_1 2.617508 1_555
S5_2 Zr27_0 2.611477 1_565
S5_2 Zr27_4 2.611480 1_565
S5_2 Zr27_2 2.611480 1_455
S5_2 Zr14_0 2.617506 1_565
S5_2 Zr14_4 2.617508 1_565
S5_2 Zr14_2 2.617508 1_455
S5_3 Zr27_1 2.611477 1_565
S5_3 Zr27_3 2.611480 1_455
S5_3 Zr27_5 2.611480 1_565
S5_3 Zr14_1 2.617506 1_565
S5_3 Zr14_5 2.617508 1_565
S5_3 Zr14_3 2.617508 1_455
S5_4 Zr27_6 2.611477 1_555
S5_4 Zr27_2 2.611480 1_555
S5_4 Zr27_4 2.611480 1_555
S5_4 Zr14_6 2.617506 1_555
S5_4 Zr14_2 2.617508 1_555
S5_4 Zr14_4 2.617508 1_555
S5_5 Zr27_7 2.611477 1_555
S5_5 Zr27_3 2.611480 1_555
S5_5 Zr27_5 2.611480 1_555
S5_5 Zr14_7 2.617506 1_555
S5_5 Zr14_3 2.617508 1_555
S5_5 Zr14_5 2.617508 1_555
S5_6 Zr27_4 2.611477 1_565
S5_6 Zr27_6 2.611480 1_555
S5_6 Zr27_0 2.611480 1_665
S5_6 Zr14_4 2.617506 1_565
S5_6 Zr14_6 2.617508 1_555
S5_6 Zr14_0 2.617508 1_665
S5_7 Zr27_5 2.611477 1_565
S5_7 Zr27_7 2.611480 1_555
S5_7 Zr27_1 2.611480 1_665
S5_7 Zr14_5 2.617506 1_565
S5_7 Zr14_7 2.617508 1_555
S5_7 Zr14_1 2.617508 1_665
S6_0 Zr15_2 2.606740 1_455
S6_0 Zr15_6 2.606742 1_555
S6_0 Zr15_0 2.606742 1_555
S6_0 Zr27_2 2.609016 1_455
S6_0 Zr27_6 2.609018 1_555
S6_0 Zr27_0 2.609018 1_555
S6_1 Zr15_3 2.606740 1_455
S6_1 Zr15_7 2.606742 1_555
S6_1 Zr15_1 2.606742 1_555
S6_1 Zr27_3 2.609016 1_455
S6_1 Zr27_7 2.609018 1_555
S6_1 Zr27_1 2.609018 1_555
S6_2 Zr15_0 2.606740 1_565
S6_2 Zr15_2 2.606742 1_455
S6_2 Zr15_4 2.606742 1_565
S6_2 Zr27_0 2.609016 1_565
S6_2 Zr27_4 2.609018 1_565
S6_2 Zr27_2 2.609018 1_455
S6_3 Zr15_1 2.606740 1_565
S6_3 Zr15_3 2.606742 1_455
S6_3 Zr15_5 2.606742 1_565
S6_3 Zr27_1 2.609016 1_565
S6_3 Zr27_3 2.609018 1_455
S6_3 Zr27_5 2.609018 1_565
S6_4 Zr15_6 2.606740 1_555
S6_4 Zr15_2 2.606742 1_555
S6_4 Zr15_4 2.606742 1_555
S6_4 Zr27_6 2.609016 1_555
S6_4 Zr27_2 2.609018 1_555
S6_4 Zr27_4 2.609018 1_555
S6_5 Zr15_7 2.606740 1_555
S6_5 Zr15_5 2.606742 1_555
S6_5 Zr15_3 2.606742 1_555
S6_5 Zr27_7 2.609016 1_555
S6_5 Zr27_5 2.609018 1_555
S6_5 Zr27_3 2.609018 1_555
S6_6 Zr15_4 2.606740 1_565
S6_6 Zr15_6 2.606742 1_555
S6_6 Zr15_0 2.606742 1_665
S6_6 Zr27_4 2.609016 1_565
S6_6 Zr27_6 2.609018 1_555
S6_6 Zr27_0 2.609018 1_665
S6_7 Zr15_5 2.606740 1_565
S6_7 Zr15_7 2.606742 1_555
S6_7 Zr15_1 2.606742 1_665
S6_7 Zr27_5 2.609016 1_565
S6_7 Zr27_7 2.609018 1_555
S6_7 Zr27_1 2.609018 1_665
S7_0 Zr15_2 2.606103 1_455
S7_0 Zr15_6 2.606105 1_555
S7_0 Zr15_0 2.606105 1_555
S7_0 Zr34_2 2.606194 1_455
S7_0 Zr34_6 2.606196 1_555
S7_0 Zr34_0 2.606196 1_555
S7_1 Zr15_3 2.606103 1_455
S7_1 Zr15_7 2.606105 1_555
S7_1 Zr15_1 2.606105 1_555
S7_1 Zr34_3 2.606194 1_455
S7_1 Zr34_7 2.606196 1_555
S7_1 Zr34_1 2.606196 1_555
S7_2 Zr15_0 2.606103 1_565
S7_2 Zr15_4 2.606105 1_565
S7_2 Zr15_2 2.606105 1_455
S7_2 Zr34_0 2.606194 1_565
S7_2 Zr34_4 2.606196 1_565
S7_2 Zr34_2 2.606196 1_455
S7_3 Zr15_1 2.606103 1_565
S7_3 Zr15_5 2.606105 1_565
S7_3 Zr15_3 2.606105 1_455
S7_3 Zr34_1 2.606194 1_565
S7_3 Zr34_5 2.606196 1_565
S7_3 Zr34_3 2.606196 1_455
S7_4 Zr15_6 2.606103 1_555
S7_4 Zr15_2 2.606105 1_555
S7_4 Zr15_4 2.606105 1_555
S7_4 Zr34_6 2.606194 1_555
S7_4 Zr34_2 2.606196 1_555
S7_4 Zr34_4 2.606196 1_555
S7_5 Zr15_7 2.606103 1_555
S7_5 Zr15_5 2.606105 1_555
S7_5 Zr15_3 2.606105 1_555
S7_5 Zr34_7 2.606194 1_555
S7_5 Zr34_3 2.606196 1_555
S7_5 Zr34_5 2.606196 1_555
S7_6 Zr15_4 2.606103 1_565
S7_6 Zr15_6 2.606105 1_555
S7_6 Zr15_0 2.606105 1_665
S7_6 Zr34_4 2.606194 1_565
S7_6 Zr34_6 2.606196 1_555
S7_6 Zr34_0 2.606196 1_665
S7_7 Zr15_5 2.606103 1_565
S7_7 Zr15_7 2.606105 1_555
S7_7 Zr15_1 2.606105 1_665
S7_7 Zr34_5 2.606194 1_565
S7_7 Zr34_7 2.606196 1_555
S7_7 Zr34_1 2.606196 1_665
S8_0 Zr35_2 2.605921 1_455
S8_0 Zr35_0 2.605923 1_555
S8_0 Zr35_6 2.605923 1_555
S8_0 Zr28_2 2.606194 1_455
S8_0 Zr28_6 2.606196 1_555
S8_0 Zr28_0 2.606196 1_555
S8_1 Zr35_3 2.605921 1_455
S8_1 Zr35_1 2.605923 1_555
S8_1 Zr35_7 2.605923 1_555
S8_1 Zr28_3 2.606194 1_455
S8_1 Zr28_1 2.606196 1_555
S8_1 Zr28_7 2.606196 1_555
S8_2 Zr35_0 2.605921 1_565
S8_2 Zr35_4 2.605923 1_565
S8_2 Zr35_2 2.605923 1_455
S8_2 Zr28_0 2.606194 1_565
S8_2 Zr28_4 2.606196 1_565
S8_2 Zr28_2 2.606196 1_455
S8_3 Zr35_1 2.605921 1_565
S8_3 Zr35_3 2.605923 1_455
S8_3 Zr35_5 2.605923 1_565
S8_3 Zr28_1 2.606194 1_565
S8_3 Zr28_5 2.606196 1_565
S8_3 Zr28_3 2.606196 1_455
S8_4 Zr35_6 2.605921 1_555
S8_4 Zr35_4 2.605923 1_555
S8_4 Zr35_2 2.605923 1_555
S8_4 Zr28_6 2.606194 1_555
S8_4 Zr28_4 2.606196 1_555
S8_4 Zr28_2 2.606196 1_555
S8_5 Zr35_7 2.605921 1_555
S8_5 Zr35_5 2.605923 1_555
S8_5 Zr35_3 2.605923 1_555
S8_5 Zr28_7 2.606194 1_555
S8_5 Zr28_5 2.606196 1_555
S8_5 Zr28_3 2.606196 1_555
S8_6 Zr35_4 2.605921 1_565
S8_6 Zr35_6 2.605923 1_555
S8_6 Zr35_0 2.605923 1_665
S8_6 Zr28_4 2.606194 1_565
S8_6 Zr28_6 2.606196 1_555
S8_6 Zr28_0 2.606196 1_665
S8_7 Zr35_5 2.605921 1_565
S8_7 Zr35_7 2.605923 1_555
S8_7 Zr35_1 2.605923 1_665
S8_7 Zr28_5 2.606194 1_565
S8_7 Zr28_7 2.606196 1_555
S8_7 Zr28_1 2.606196 1_665
S9_0 Zr34_2 2.605466 1_455
S9_0 Zr34_6 2.605468 1_555
S9_0 Zr34_0 2.605468 1_555
S9_0 Zr35_2 2.605830 1_455
S9_0 Zr35_6 2.605832 1_555
S9_0 Zr35_0 2.605832 1_555
S9_1 Zr34_3 2.605466 1_455
S9_1 Zr34_1 2.605468 1_555
S9_1 Zr34_7 2.605468 1_555
S9_1 Zr35_3 2.605830 1_455
S9_1 Zr35_7 2.605832 1_555
S9_1 Zr35_1 2.605832 1_555
S9_2 Zr34_0 2.605466 1_565
S9_2 Zr34_4 2.605468 1_565
S9_2 Zr34_2 2.605468 1_455
S9_2 Zr35_0 2.605830 1_565
S9_2 Zr35_2 2.605832 1_455
S9_2 Zr35_4 2.605832 1_565
S9_3 Zr34_1 2.605466 1_565
S9_3 Zr34_5 2.605468 1_565
S9_3 Zr34_3 2.605468 1_455
S9_3 Zr35_1 2.605830 1_565
S9_3 Zr35_3 2.605832 1_455
S9_3 Zr35_5 2.605832 1_565
S9_4 Zr34_6 2.605466 1_555
S9_4 Zr34_4 2.605468 1_555
S9_4 Zr34_2 2.605468 1_555
S9_4 Zr35_6 2.605830 1_555
S9_4 Zr35_2 2.605832 1_555
S9_4 Zr35_4 2.605832 1_555
S9_5 Zr34_7 2.605466 1_555
S9_5 Zr34_3 2.605468 1_555
S9_5 Zr34_5 2.605468 1_555
S9_5 Zr35_7 2.605830 1_555
S9_5 Zr35_3 2.605832 1_555
S9_5 Zr35_5 2.605832 1_555
S9_6 Zr34_4 2.605466 1_565
S9_6 Zr34_6 2.605468 1_555
S9_6 Zr34_0 2.605468 1_665
S9_6 Zr35_4 2.605830 1_565
S9_6 Zr35_6 2.605832 1_555
S9_6 Zr35_0 2.605832 1_665
S9_7 Zr34_5 2.605466 1_565
S9_7 Zr34_7 2.605468 1_555
S9_7 Zr34_1 2.605468 1_665
S9_7 Zr35_5 2.605830 1_565
S9_7 Zr35_7 2.605832 1_555
S9_7 Zr35_1 2.605832 1_665
S10_0 Zr28_2 2.605557 1_455
S10_0 Zr28_6 2.605559 1_555
S10_0 Zr28_0 2.605559 1_555
S10_0 Zr16_2 2.605921 1_455
S10_0 Zr16_6 2.605923 1_555
S10_0 Zr16_0 2.605923 1_555
S10_1 Zr28_3 2.605557 1_455
S10_1 Zr28_7 2.605559 1_555
S10_1 Zr28_1 2.605559 1_555
S10_1 Zr16_3 2.605921 1_455
S10_1 Zr16_7 2.605923 1_555
S10_1 Zr16_1 2.605923 1_555
S10_2 Zr28_0 2.605557 1_565
S10_2 Zr28_4 2.605559 1_565
S10_2 Zr28_2 2.605559 1_455
S10_2 Zr16_0 2.605921 1_565
S10_2 Zr16_4 2.605923 1_565
S10_2 Zr16_2 2.605923 1_455
S10_3 Zr28_1 2.605557 1_565
S10_3 Zr28_5 2.605559 1_565
S10_3 Zr28_3 2.605559 1_455
S10_3 Zr16_1 2.605921 1_565
S10_3 Zr16_5 2.605923 1_565
S10_3 Zr16_3 2.605923 1_455
S10_4 Zr28_6 2.605557 1_555
S10_4 Zr28_2 2.605559 1_555
S10_4 Zr28_4 2.605559 1_555
S10_4 Zr16_6 2.605921 1_555
S10_4 Zr16_2 2.605923 1_555
S10_4 Zr16_4 2.605923 1_555
S10_5 Zr28_7 2.605557 1_555
S10_5 Zr28_3 2.605559 1_555
S10_5 Zr28_5 2.605559 1_555
S10_5 Zr16_7 2.605921 1_555
S10_5 Zr16_3 2.605923 1_555
S10_5 Zr16_5 2.605923 1_555
S10_6 Zr28_4 2.605557 1_565
S10_6 Zr28_6 2.605559 1_555
S10_6 Zr28_0 2.605559 1_665
S10_6 Zr16_4 2.605921 1_565
S10_6 Zr16_6 2.605923 1_555
S10_6 Zr16_0 2.605923 1_665
S10_7 Zr28_5 2.605557 1_565
S10_7 Zr28_7 2.605559 1_555
S10_7 Zr28_1 2.605559 1_665
S10_7 Zr16_5 2.605921 1_565
S10_7 Zr16_7 2.605923 1_555
S10_7 Zr16_1 2.605923 1_665
S11_0 Zr16_2 2.605921 1_455
S11_0 Zr16_6 2.605923 1_555
S11_0 Zr16_0 2.605923 1_555
S11_0 Zr17_2 2.606103 1_455
S11_0 Zr17_0 2.606105 1_555
S11_0 Zr17_6 2.606105 1_555
S11_1 Zr16_3 2.605921 1_455
S11_1 Zr16_7 2.605923 1_555
S11_1 Zr16_1 2.605923 1_555
S11_1 Zr17_3 2.606103 1_455
S11_1 Zr17_7 2.606105 1_555
S11_1 Zr17_1 2.606105 1_555
S11_2 Zr16_0 2.605921 1_565
S11_2 Zr16_4 2.605923 1_565
S11_2 Zr16_2 2.605923 1_455
S11_2 Zr17_0 2.606103 1_565
S11_2 Zr17_4 2.606105 1_565
S11_2 Zr17_2 2.606105 1_455
S11_3 Zr16_1 2.605921 1_565
S11_3 Zr16_5 2.605923 1_565
S11_3 Zr16_3 2.605923 1_455
S11_3 Zr17_1 2.606103 1_565
S11_3 Zr17_5 2.606105 1_565
S11_3 Zr17_3 2.606105 1_455
S11_4 Zr16_6 2.605921 1_555
S11_4 Zr16_2 2.605923 1_555
S11_4 Zr16_4 2.605923 1_555
S11_4 Zr17_6 2.606103 1_555
S11_4 Zr17_4 2.606105 1_555
S11_4 Zr17_2 2.606105 1_555
S11_5 Zr16_7 2.605921 1_555
S11_5 Zr16_3 2.605923 1_555
S11_5 Zr16_5 2.605923 1_555
S11_5 Zr17_7 2.606103 1_555
S11_5 Zr17_3 2.606105 1_555
S11_5 Zr17_5 2.606105 1_555
S11_6 Zr16_4 2.605921 1_565
S11_6 Zr16_6 2.605923 1_555
S11_6 Zr16_0 2.605923 1_665
S11_6 Zr17_4 2.606103 1_565
S11_6 Zr17_6 2.606105 1_555
S11_6 Zr17_0 2.606105 1_665
S11_7 Zr16_5 2.605921 1_565
S11_7 Zr16_7 2.605923 1_555
S11_7 Zr16_1 2.605923 1_665
S11_7 Zr17_5 2.606103 1_565
S11_7 Zr17_7 2.606105 1_555
S11_7 Zr17_1 2.606105 1_665
S12_0 Zr36_2 2.605739 1_455
S12_0 Zr36_6 2.605741 1_555
S12_0 Zr36_0 2.605741 1_555
S12_0 Zr17_2 2.605830 1_455
S12_0 Zr17_6 2.605832 1_555
S12_0 Zr17_0 2.605832 1_555
S12_1 Zr36_3 2.605739 1_455
S12_1 Zr36_7 2.605741 1_555
S12_1 Zr36_1 2.605741 1_555
S12_1 Zr17_3 2.605830 1_455
S12_1 Zr17_7 2.605832 1_555
S12_1 Zr17_1 2.605832 1_555
S12_2 Zr36_0 2.605739 1_565
S12_2 Zr36_2 2.605741 1_455
S12_2 Zr36_4 2.605741 1_565
S12_2 Zr17_0 2.605830 1_565
S12_2 Zr17_4 2.605832 1_565
S12_2 Zr17_2 2.605832 1_455
S12_3 Zr36_1 2.605739 1_565
S12_3 Zr36_5 2.605741 1_565
S12_3 Zr36_3 2.605741 1_455
S12_3 Zr17_1 2.605830 1_565
S12_3 Zr17_5 2.605832 1_565
S12_3 Zr17_3 2.605832 1_455
S12_4 Zr36_6 2.605739 1_555
S12_4 Zr36_2 2.605741 1_555
S12_4 Zr36_4 2.605741 1_555
S12_4 Zr17_6 2.605830 1_555
S12_4 Zr17_2 2.605832 1_555
S12_4 Zr17_4 2.605832 1_555
S12_5 Zr36_7 2.605739 1_555
S12_5 Zr36_5 2.605741 1_555
S12_5 Zr36_3 2.605741 1_555
S12_5 Zr17_7 2.605830 1_555
S12_5 Zr17_3 2.605832 1_555
S12_5 Zr17_5 2.605832 1_555
S12_6 Zr36_4 2.605739 1_565
S12_6 Zr36_6 2.605741 1_555
S12_6 Zr36_0 2.605741 1_665
S12_6 Zr17_4 2.605830 1_565
S12_6 Zr17_6 2.605832 1_555
S12_6 Zr17_0 2.605832 1_665
S12_7 Zr36_5 2.605739 1_565
S12_7 Zr36_7 2.605741 1_555
S12_7 Zr36_1 2.605741 1_665
S12_7 Zr17_5 2.605830 1_565
S12_7 Zr17_7 2.605832 1_555
S12_7 Zr17_1 2.605832 1_665
S13_0 Zr29_2 2.605830 1_455
S13_0 Zr29_6 2.605832 1_555
S13_0 Zr29_0 2.605832 1_555
S13_0 Zr18_2 2.605921 1_455
S13_0 Zr18_6 2.605923 1_555
S13_0 Zr18_0 2.605923 1_555
S13_1 Zr29_3 2.605830 1_455
S13_1 Zr29_7 2.605832 1_555
S13_1 Zr29_1 2.605832 1_555
S13_1 Zr18_3 2.605921 1_455
S13_1 Zr18_7 2.605923 1_555
S13_1 Zr18_1 2.605923 1_555
S13_2 Zr29_0 2.605830 1_565
S13_2 Zr29_4 2.605832 1_565
S13_2 Zr29_2 2.605832 1_455
S13_2 Zr18_0 2.605921 1_565
S13_2 Zr18_4 2.605923 1_565
S13_2 Zr18_2 2.605923 1_455
S13_3 Zr29_1 2.605830 1_565
S13_3 Zr29_3 2.605832 1_455
S13_3 Zr29_5 2.605832 1_565
S13_3 Zr18_1 2.605921 1_565
S13_3 Zr18_5 2.605923 1_565
S13_3 Zr18_3 2.605923 1_455
S13_4 Zr29_6 2.605830 1_555
S13_4 Zr29_4 2.605832 1_555
S13_4 Zr29_2 2.605832 1_555
S13_4 Zr18_6 2.605921 1_555
S13_4 Zr18_4 2.605923 1_555
S13_4 Zr18_2 2.605923 1_555
S13_5 Zr29_7 2.605830 1_555
S13_5 Zr29_3 2.605832 1_555
S13_5 Zr29_5 2.605832 1_555
S13_5 Zr18_7 2.605921 1_555
S13_5 Zr18_5 2.605923 1_555
S13_5 Zr18_3 2.605923 1_555
S13_6 Zr29_4 2.605830 1_565
S13_6 Zr29_6 2.605832 1_555
S13_6 Zr29_0 2.605832 1_665
S13_6 Zr18_4 2.605921 1_565
S13_6 Zr18_6 2.605923 1_555
S13_6 Zr18_0 2.605923 1_665
S13_7 Zr29_5 2.605830 1_565
S13_7 Zr29_7 2.605832 1_555
S13_7 Zr29_1 2.605832 1_665
S13_7 Zr18_5 2.605921 1_565
S13_7 Zr18_7 2.605923 1_555
S13_7 Zr18_1 2.605923 1_665
S14_0 Zr29_2 2.605830 1_455
S14_0 Zr29_0 2.605832 1_555
S14_0 Zr29_6 2.605832 1_555
S14_0 Zr36_2 2.605921 1_455
S14_0 Zr36_6 2.605923 1_555
S14_0 Zr36_0 2.605923 1_555
S14_1 Zr29_3 2.605830 1_455
S14_1 Zr29_7 2.605832 1_555
S14_1 Zr29_1 2.605832 1_555
S14_1 Zr36_3 2.605921 1_455
S14_1 Zr36_1 2.605923 1_555
S14_1 Zr36_7 2.605923 1_555
S14_2 Zr29_0 2.605830 1_565
S14_2 Zr29_4 2.605832 1_565
S14_2 Zr29_2 2.605832 1_455
S14_2 Zr36_0 2.605921 1_565
S14_2 Zr36_2 2.605923 1_455
S14_2 Zr36_4 2.605923 1_565
S14_3 Zr29_1 2.605830 1_565
S14_3 Zr29_3 2.605832 1_455
S14_3 Zr29_5 2.605832 1_565
S14_3 Zr36_1 2.605921 1_565
S14_3 Zr36_3 2.605923 1_455
S14_3 Zr36_5 2.605923 1_565
S14_4 Zr29_6 2.605830 1_555
S14_4 Zr29_2 2.605832 1_555
S14_4 Zr29_4 2.605832 1_555
S14_4 Zr36_6 2.605921 1_555
S14_4 Zr36_2 2.605923 1_555
S14_4 Zr36_4 2.605923 1_555
S14_5 Zr29_7 2.605830 1_555
S14_5 Zr29_3 2.605832 1_555
S14_5 Zr29_5 2.605832 1_555
S14_5 Zr36_7 2.605921 1_555
S14_5 Zr36_3 2.605923 1_555
S14_5 Zr36_5 2.605923 1_555
S14_6 Zr29_4 2.605830 1_565
S14_6 Zr29_6 2.605832 1_555
S14_6 Zr29_0 2.605832 1_665
S14_6 Zr36_4 2.605921 1_565
S14_6 Zr36_6 2.605923 1_555
S14_6 Zr36_0 2.605923 1_665
S14_7 Zr29_5 2.605830 1_565
S14_7 Zr29_7 2.605832 1_555
S14_7 Zr29_1 2.605832 1_665
S14_7 Zr36_5 2.605921 1_565
S14_7 Zr36_7 2.605923 1_555
S14_7 Zr36_1 2.605923 1_665
S15_0 Zr18_2 2.605648 1_455
S15_0 Zr18_6 2.605650 1_555
S15_0 Zr18_0 2.605650 1_555
S15_0 Zr37_2 2.606012 1_455
S15_0 Zr37_6 2.606014 1_555
S15_0 Zr37_0 2.606014 1_555
S15_1 Zr18_3 2.605648 1_455
S15_1 Zr18_7 2.605650 1_555
S15_1 Zr18_1 2.605650 1_555
S15_1 Zr37_3 2.606012 1_455
S15_1 Zr37_7 2.606014 1_555
S15_1 Zr37_1 2.606014 1_555
S15_2 Zr18_0 2.605648 1_565
S15_2 Zr18_4 2.605650 1_565
S15_2 Zr18_2 2.605650 1_455
S15_2 Zr37_0 2.606012 1_565
S15_2 Zr37_4 2.606014 1_565
S15_2 Zr37_2 2.606014 1_455
S15_3 Zr18_1 2.605648 1_565
S15_3 Zr18_5 2.605650 1_565
S15_3 Zr18_3 2.605650 1_455
S15_3 Zr37_1 2.606012 1_565
S15_3 Zr37_5 2.606014 1_565
S15_3 Zr37_3 2.606014 1_455
S15_4 Zr18_6 2.605648 1_555
S15_4 Zr18_4 2.605650 1_555
S15_4 Zr18_2 2.605650 1_555
S15_4 Zr37_6 2.606012 1_555
S15_4 Zr37_2 2.606014 1_555
S15_4 Zr37_4 2.606014 1_555
S15_5 Zr18_7 2.605648 1_555
S15_5 Zr18_5 2.605650 1_555
S15_5 Zr18_3 2.605650 1_555
S15_5 Zr37_7 2.606012 1_555
S15_5 Zr37_3 2.606014 1_555
S15_5 Zr37_5 2.606014 1_555
S15_6 Zr18_4 2.605648 1_565
S15_6 Zr18_6 2.605650 1_555
S15_6 Zr18_0 2.605650 1_665
S15_6 Zr37_4 2.606012 1_565
S15_6 Zr37_6 2.606014 1_555
S15_6 Zr37_0 2.606014 1_665
S15_7 Zr18_5 2.605648 1_565
S15_7 Zr18_7 2.605650 1_555
S15_7 Zr18_1 2.605650 1_665
S15_7 Zr37_5 2.606012 1_565
S15_7 Zr37_7 2.606014 1_555
S15_7 Zr37_1 2.606014 1_665
S16_0 Zr38_2 2.605830 1_455
S16_0 Zr38_6 2.605832 1_555
S16_0 Zr38_0 2.605832 1_555
S16_0 Zr37_2 2.605921 1_455
S16_0 Zr37_6 2.605923 1_555
S16_0 Zr37_0 2.605923 1_555
S16_1 Zr38_3 2.605830 1_455
S16_1 Zr38_7 2.605832 1_555
S16_1 Zr38_1 2.605832 1_555
S16_1 Zr37_3 2.605921 1_455
S16_1 Zr37_7 2.605923 1_555
S16_1 Zr37_1 2.605923 1_555
S16_2 Zr38_0 2.605830 1_565
S16_2 Zr38_4 2.605832 1_565
S16_2 Zr38_2 2.605832 1_455
S16_2 Zr37_0 2.605921 1_565
S16_2 Zr37_4 2.605923 1_565
S16_2 Zr37_2 2.605923 1_455
S16_3 Zr38_1 2.605830 1_565
S16_3 Zr38_3 2.605832 1_455
S16_3 Zr38_5 2.605832 1_565
S16_3 Zr37_1 2.605921 1_565
S16_3 Zr37_3 2.605923 1_455
S16_3 Zr37_5 2.605923 1_565
S16_4 Zr38_6 2.605830 1_555
S16_4 Zr38_2 2.605832 1_555
S16_4 Zr38_4 2.605832 1_555
S16_4 Zr37_6 2.605921 1_555
S16_4 Zr37_2 2.605923 1_555
S16_4 Zr37_4 2.605923 1_555
S16_5 Zr38_7 2.605830 1_555
S16_5 Zr38_3 2.605832 1_555
S16_5 Zr38_5 2.605832 1_555
S16_5 Zr37_7 2.605921 1_555
S16_5 Zr37_3 2.605923 1_555
S16_5 Zr37_5 2.605923 1_555
S16_6 Zr38_4 2.605830 1_565
S16_6 Zr38_6 2.605832 1_555
S16_6 Zr38_0 2.605832 1_665
S16_6 Zr37_4 2.605921 1_565
S16_6 Zr37_6 2.605923 1_555
S16_6 Zr37_0 2.605923 1_665
S16_7 Zr38_5 2.605830 1_565
S16_7 Zr38_7 2.605832 1_555
S16_7 Zr38_1 2.605832 1_665
S16_7 Zr37_5 2.605921 1_565
S16_7 Zr37_7 2.605923 1_555
S16_7 Zr37_1 2.605923 1_665
S17_0 Zr19_2 2.605739 1_455
S17_0 Zr19_6 2.605741 1_555
S17_0 Zr19_0 2.605741 1_555
S17_0 Zr38_2 2.605830 1_455
S17_0 Zr38_6 2.605832 1_555
S17_0 Zr38_0 2.605832 1_555
S17_1 Zr19_3 2.605739 1_455
S17_1 Zr19_7 2.605741 1_555
S17_1 Zr19_1 2.605741 1_555
S17_1 Zr38_3 2.605830 1_455
S17_1 Zr38_7 2.605832 1_555
S17_1 Zr38_1 2.605832 1_555
S17_2 Zr19_0 2.605739 1_565
S17_2 Zr19_4 2.605741 1_565
S17_2 Zr19_2 2.605741 1_455
S17_2 Zr38_0 2.605830 1_565
S17_2 Zr38_4 2.605832 1_565
S17_2 Zr38_2 2.605832 1_455
S17_3 Zr19_1 2.605739 1_565
S17_3 Zr19_5 2.605741 1_565
S17_3 Zr19_3 2.605741 1_455
S17_3 Zr38_1 2.605830 1_565
S17_3 Zr38_3 2.605832 1_455
S17_3 Zr38_5 2.605832 1_565
S17_4 Zr19_6 2.605739 1_555
S17_4 Zr19_2 2.605741 1_555
S17_4 Zr19_4 2.605741 1_555
S17_4 Zr38_6 2.605830 1_555
S17_4 Zr38_4 2.605832 1_555
S17_4 Zr38_2 2.605832 1_555
S17_5 Zr19_7 2.605739 1_555
S17_5 Zr19_3 2.605741 1_555
S17_5 Zr19_5 2.605741 1_555
S17_5 Zr38_7 2.605830 1_555
S17_5 Zr38_5 2.605832 1_555
S17_5 Zr38_3 2.605832 1_555
S17_6 Zr19_4 2.605739 1_565
S17_6 Zr19_6 2.605741 1_555
S17_6 Zr19_0 2.605741 1_665
S17_6 Zr38_4 2.605830 1_565
S17_6 Zr38_6 2.605832 1_555
S17_6 Zr38_0 2.605832 1_665
S17_7 Zr19_5 2.605739 1_565
S17_7 Zr19_7 2.605741 1_555
S17_7 Zr19_1 2.605741 1_665
S17_7 Zr38_5 2.605830 1_565
S17_7 Zr38_7 2.605832 1_555
S17_7 Zr38_1 2.605832 1_665
S18_0 Zr20_2 2.605921 1_455
S18_0 Zr20_6 2.605923 1_555
S18_0 Zr20_0 2.605923 1_555
S18_0 Zr19_2 2.606012 1_455
S18_0 Zr19_6 2.606014 1_555
S18_0 Zr19_0 2.606014 1_555
S18_1 Zr20_3 2.605921 1_455
S18_1 Zr20_7 2.605923 1_555
S18_1 Zr20_1 2.605923 1_555
S18_1 Zr19_3 2.606012 1_455
S18_1 Zr19_7 2.606014 1_555
S18_1 Zr19_1 2.606014 1_555
S18_2 Zr20_0 2.605921 1_565
S18_2 Zr20_2 2.605923 1_455
S18_2 Zr20_4 2.605923 1_565
S18_2 Zr19_0 2.606012 1_565
S18_2 Zr19_4 2.606014 1_565
S18_2 Zr19_2 2.606014 1_455
S18_3 Zr20_1 2.605921 1_565
S18_3 Zr20_5 2.605923 1_565
S18_3 Zr20_3 2.605923 1_455
S18_3 Zr19_1 2.606012 1_565
S18_3 Zr19_5 2.606014 1_565
S18_3 Zr19_3 2.606014 1_455
S18_4 Zr20_6 2.605921 1_555
S18_4 Zr20_2 2.605923 1_555
S18_4 Zr20_4 2.605923 1_555
S18_4 Zr19_6 2.606012 1_555
S18_4 Zr19_2 2.606014 1_555
S18_4 Zr19_4 2.606014 1_555
S18_5 Zr20_7 2.605921 1_555
S18_5 Zr20_3 2.605923 1_555
S18_5 Zr20_5 2.605923 1_555
S18_5 Zr19_7 2.606012 1_555
S18_5 Zr19_3 2.606014 1_555
S18_5 Zr19_5 2.606014 1_555
S18_6 Zr20_4 2.605921 1_565
S18_6 Zr20_6 2.605923 1_555
S18_6 Zr20_0 2.605923 1_665
S18_6 Zr19_4 2.606012 1_565
S18_6 Zr19_6 2.606014 1_555
S18_6 Zr19_0 2.606014 1_665
S18_7 Zr20_5 2.605921 1_565
S18_7 Zr20_7 2.605923 1_555
S18_7 Zr20_1 2.605923 1_665
S18_7 Zr19_5 2.606012 1_565
S18_7 Zr19_7 2.606014 1_555
S18_7 Zr19_1 2.606014 1_665
S19_0 Zr20_2 2.605648 1_455
S19_0 Zr20_6 2.605650 1_555
S19_0 Zr20_0 2.605650 1_555
S19_0 Zr21_2 2.605739 1_455
S19_0 Zr21_6 2.605741 1_555
S19_0 Zr21_0 2.605741 1_555
S19_1 Zr20_3 2.605648 1_455
S19_1 Zr20_7 2.605650 1_555
S19_1 Zr20_1 2.605650 1_555
S19_1 Zr21_3 2.605739 1_455
S19_1 Zr21_7 2.605741 1_555
S19_1 Zr21_1 2.605741 1_555
S19_2 Zr20_0 2.605648 1_565
S19_2 Zr20_4 2.605650 1_565
S19_2 Zr20_2 2.605650 1_455
S19_2 Zr21_0 2.605739 1_565
S19_2 Zr21_4 2.605741 1_565
S19_2 Zr21_2 2.605741 1_455
S19_3 Zr20_1 2.605648 1_565
S19_3 Zr20_5 2.605650 1_565
S19_3 Zr20_3 2.605650 1_455
S19_3 Zr21_1 2.605739 1_565
S19_3 Zr21_5 2.605741 1_565
S19_3 Zr21_3 2.605741 1_455
S19_4 Zr20_6 2.605648 1_555
S19_4 Zr20_2 2.605650 1_555
S19_4 Zr20_4 2.605650 1_555
S19_4 Zr21_6 2.605739 1_555
S19_4 Zr21_2 2.605741 1_555
S19_4 Zr21_4 2.605741 1_555
S19_5 Zr20_7 2.605648 1_555
S19_5 Zr20_3 2.605650 1_555
S19_5 Zr20_5 2.605650 1_555
S19_5 Zr21_7 2.605739 1_555
S19_5 Zr21_3 2.605741 1_555
S19_5 Zr21_5 2.605741 1_555
S19_6 Zr20_4 2.605648 1_565
S19_6 Zr20_6 2.605650 1_555
S19_6 Zr20_0 2.605650 1_665
S19_6 Zr21_4 2.605739 1_565
S19_6 Zr21_6 2.605741 1_555
S19_6 Zr21_0 2.605741 1_665
S19_7 Zr20_5 2.605648 1_565
S19_7 Zr20_7 2.605650 1_555
S19_7 Zr20_1 2.605650 1_665
S19_7 Zr21_5 2.605739 1_565
S19_7 Zr21_7 2.605741 1_555
S19_7 Zr21_1 2.605741 1_665
S20_0 Zr21_2 2.605830 1_455
S20_0 Zr21_6 2.605832 1_555
S20_0 Zr21_0 2.605832 1_555
S20_0 Zr22_2 2.606012 1_455
S20_0 Zr22_6 2.606014 1_555
S20_0 Zr22_0 2.606014 1_555
S20_1 Zr21_3 2.605830 1_455
S20_1 Zr21_7 2.605832 1_555
S20_1 Zr21_1 2.605832 1_555
S20_1 Zr22_3 2.606012 1_455
S20_1 Zr22_7 2.606014 1_555
S20_1 Zr22_1 2.606014 1_555
S20_2 Zr21_0 2.605830 1_565
S20_2 Zr21_4 2.605832 1_565
S20_2 Zr21_2 2.605832 1_455
S20_2 Zr22_0 2.606012 1_565
S20_2 Zr22_2 2.606014 1_455
S20_2 Zr22_4 2.606014 1_565
S20_3 Zr21_1 2.605830 1_565
S20_3 Zr21_5 2.605832 1_565
S20_3 Zr21_3 2.605832 1_455
S20_3 Zr22_1 2.606012 1_565
S20_3 Zr22_3 2.606014 1_455
S20_3 Zr22_5 2.606014 1_565
S20_4 Zr21_6 2.605830 1_555
S20_4 Zr21_4 2.605832 1_555
S20_4 Zr21_2 2.605832 1_555
S20_4 Zr22_6 2.606012 1_555
S20_4 Zr22_2 2.606014 1_555
S20_4 Zr22_4 2.606014 1_555
S20_5 Zr21_7 2.605830 1_555
S20_5 Zr21_3 2.605832 1_555
S20_5 Zr21_5 2.605832 1_555
S20_5 Zr22_7 2.606012 1_555
S20_5 Zr22_3 2.606014 1_555
S20_5 Zr22_5 2.606014 1_555
S20_6 Zr21_4 2.605830 1_565
S20_6 Zr21_6 2.605832 1_555
S20_6 Zr21_0 2.605832 1_665
S20_6 Zr22_4 2.606012 1_565
S20_6 Zr22_6 2.606014 1_555
S20_6 Zr22_0 2.606014 1_665
S20_7 Zr21_5 2.605830 1_565
S20_7 Zr21_7 2.605832 1_555
S20_7 Zr21_1 2.605832 1_665
S20_7 Zr22_5 2.606012 1_565
S20_7 Zr22_7 2.606014 1_555
S20_7 Zr22_1 2.606014 1_665
S21_0 Zr23_2 2.605284 1_455
S21_0 Zr23_6 2.605287 1_555
S21_0 Zr23_0 2.605287 1_555
S21_0 Zr22_2 2.605648 1_455
S21_0 Zr22_6 2.605650 1_555
S21_0 Zr22_0 2.605650 1_555
S21_1 Zr23_3 2.605284 1_455
S21_1 Zr23_7 2.605287 1_555
S21_1 Zr23_1 2.605287 1_555
S21_1 Zr22_3 2.605648 1_455
S21_1 Zr22_7 2.605650 1_555
S21_1 Zr22_1 2.605650 1_555
S21_2 Zr23_0 2.605284 1_565
S21_2 Zr23_2 2.605287 1_455
S21_2 Zr23_4 2.605287 1_565
S21_2 Zr22_0 2.605648 1_565
S21_2 Zr22_2 2.605650 1_455
S21_2 Zr22_4 2.605650 1_565
S21_3 Zr23_1 2.605284 1_565
S21_3 Zr23_5 2.605287 1_565
S21_3 Zr23_3 2.605287 1_455
S21_3 Zr22_1 2.605648 1_565
S21_3 Zr22_3 2.605650 1_455
S21_3 Zr22_5 2.605650 1_565
S21_4 Zr23_6 2.605284 1_555
S21_4 Zr23_4 2.605287 1_555
S21_4 Zr23_2 2.605287 1_555
S21_4 Zr22_6 2.605648 1_555
S21_4 Zr22_4 2.605650 1_555
S21_4 Zr22_2 2.605650 1_555
S21_5 Zr23_7 2.605284 1_555
S21_5 Zr23_3 2.605287 1_555
S21_5 Zr23_5 2.605287 1_555
S21_5 Zr22_7 2.605648 1_555
S21_5 Zr22_3 2.605650 1_555
S21_5 Zr22_5 2.605650 1_555
S21_6 Zr23_4 2.605284 1_565
S21_6 Zr23_6 2.605287 1_555
S21_6 Zr23_0 2.605287 1_665
S21_6 Zr22_4 2.605648 1_565
S21_6 Zr22_6 2.605650 1_555
S21_6 Zr22_0 2.605650 1_665
S21_7 Zr23_5 2.605284 1_565
S21_7 Zr23_7 2.605287 1_555
S21_7 Zr23_1 2.605287 1_665
S21_7 Zr22_5 2.605648 1_565
S21_7 Zr22_7 2.605650 1_555
S21_7 Zr22_1 2.605650 1_665
S22_0 Zr24_2 2.606740 1_455
S22_0 Zr24_6 2.606742 1_555
S22_0 Zr24_0 2.606742 1_555
S22_0 Zr39_2 2.609198 1_455
S22_0 Zr39_6 2.609200 1_555
S22_0 Zr39_0 2.609200 1_555
S22_1 Zr24_3 2.606740 1_455
S22_1 Zr24_7 2.606742 1_555
S22_1 Zr24_1 2.606742 1_555
S22_1 Zr39_3 2.609198 1_455
S22_1 Zr39_7 2.609200 1_555
S22_1 Zr39_1 2.609200 1_555
S22_2 Zr24_0 2.606740 1_565
S22_2 Zr24_4 2.606742 1_565
S22_2 Zr24_2 2.606742 1_455
S22_2 Zr39_0 2.609198 1_565
S22_2 Zr39_2 2.609200 1_455
S22_2 Zr39_4 2.609200 1_565
S22_3 Zr24_1 2.606740 1_565
S22_3 Zr24_5 2.606742 1_565
S22_3 Zr24_3 2.606742 1_455
S22_3 Zr39_1 2.609198 1_565
S22_3 Zr39_5 2.609200 1_565
S22_3 Zr39_3 2.609200 1_455
S22_4 Zr24_6 2.606740 1_555
S22_4 Zr24_2 2.606742 1_555
S22_4 Zr24_4 2.606742 1_555
S22_4 Zr39_6 2.609198 1_555
S22_4 Zr39_2 2.609200 1_555
S22_4 Zr39_4 2.609200 1_555
S22_5 Zr24_7 2.606740 1_555
S22_5 Zr24_3 2.606742 1_555
S22_5 Zr24_5 2.606742 1_555
S22_5 Zr39_7 2.609198 1_555
S22_5 Zr39_3 2.609200 1_555
S22_5 Zr39_5 2.609200 1_555
S22_6 Zr24_4 2.606740 1_565
S22_6 Zr24_6 2.606742 1_555
S22_6 Zr24_0 2.606742 1_665
S22_6 Zr39_4 2.609198 1_565
S22_6 Zr39_6 2.609200 1_555
S22_6 Zr39_0 2.609200 1_665
S22_7 Zr24_5 2.606740 1_565
S22_7 Zr24_7 2.606742 1_555
S22_7 Zr24_1 2.606742 1_665
S22_7 Zr39_5 2.609198 1_565
S22_7 Zr39_7 2.609200 1_555
S22_7 Zr39_1 2.609200 1_665
S23_0 Zr23_2 2.606012 1_455
S23_0 Zr23_6 2.606014 1_555
S23_0 Zr23_0 2.606014 1_555
S23_0 Zr24_2 2.606194 1_455
S23_0 Zr24_6 2.606196 1_555
S23_0 Zr24_0 2.606196 1_555
S23_1 Zr23_3 2.606012 1_455
S23_1 Zr23_7 2.606014 1_555
S23_1 Zr23_1 2.606014 1_555
S23_1 Zr24_3 2.606194 1_455
S23_1 Zr24_7 2.606196 1_555
S23_1 Zr24_1 2.606196 1_555
S23_2 Zr23_0 2.606012 1_565
S23_2 Zr23_2 2.606014 1_455
S23_2 Zr23_4 2.606014 1_565
S23_2 Zr24_0 2.606194 1_565
S23_2 Zr24_4 2.606196 1_565
S23_2 Zr24_2 2.606196 1_455
S23_3 Zr23_1 2.606012 1_565
S23_3 Zr23_5 2.606014 1_565
S23_3 Zr23_3 2.606014 1_455
S23_3 Zr24_1 2.606194 1_565
S23_3 Zr24_3 2.606196 1_455
S23_3 Zr24_5 2.606196 1_565
S23_4 Zr23_6 2.606012 1_555
S23_4 Zr23_2 2.606014 1_555
S23_4 Zr23_4 2.606014 1_555
S23_4 Zr24_6 2.606194 1_555
S23_4 Zr24_2 2.606196 1_555
S23_4 Zr24_4 2.606196 1_555
S23_5 Zr23_7 2.606012 1_555
S23_5 Zr23_3 2.606014 1_555
S23_5 Zr23_5 2.606014 1_555
S23_5 Zr24_7 2.606194 1_555
S23_5 Zr24_3 2.606196 1_555
S23_5 Zr24_5 2.606196 1_555
S23_6 Zr23_4 2.606012 1_565
S23_6 Zr23_6 2.606014 1_555
S23_6 Zr23_0 2.606014 1_665
S23_6 Zr24_4 2.606194 1_565
S23_6 Zr24_6 2.606196 1_555
S23_6 Zr24_0 2.606196 1_665
S23_7 Zr23_5 2.606012 1_565
S23_7 Zr23_7 2.606014 1_555
S23_7 Zr23_1 2.606014 1_665
S23_7 Zr24_5 2.606194 1_565
S23_7 Zr24_7 2.606196 1_555
S23_7 Zr24_1 2.606196 1_665
S24_0 Zr39_2 2.611021 1_455
S24_0 Zr39_0 2.611024 1_555
S24_0 Zr39_6 2.611024 1_555
S24_0 Zr30_2 2.618238 1_455
S24_0 Zr30_0 2.618240 1_555
S24_0 Zr30_6 2.618240 1_555
S24_1 Zr39_3 2.611021 1_455
S24_1 Zr39_7 2.611024 1_555
S24_1 Zr39_1 2.611024 1_555
S24_1 Zr30_3 2.618238 1_455
S24_1 Zr30_7 2.618240 1_555
S24_1 Zr30_1 2.618240 1_555
S24_2 Zr39_0 2.611021 1_565
S24_2 Zr39_2 2.611024 1_455
S24_2 Zr39_4 2.611024 1_565
S24_2 Zr30_0 2.618238 1_565
S24_2 Zr30_4 2.618240 1_565
S24_2 Zr30_2 2.618240 1_455
S24_3 Zr39_1 2.611021 1_565
S24_3 Zr39_5 2.611024 1_565
S24_3 Zr39_3 2.611024 1_455
S24_3 Zr30_1 2.618238 1_565
S24_3 Zr30_3 2.618240 1_455
S24_3 Zr30_5 2.618240 1_565
S24_4 Zr39_6 2.611021 1_555
S24_4 Zr39_4 2.611024 1_555
S24_4 Zr39_2 2.611024 1_555
S24_4 Zr30_6 2.618238 1_555
S24_4 Zr30_4 2.618240 1_555
S24_4 Zr30_2 2.618240 1_555
S24_5 Zr39_7 2.611021 1_555
S24_5 Zr39_5 2.611024 1_555
S24_5 Zr39_3 2.611024 1_555
S24_5 Zr30_7 2.618238 1_555
S24_5 Zr30_3 2.618240 1_555
S24_5 Zr30_5 2.618240 1_555
S24_6 Zr39_4 2.611021 1_565
S24_6 Zr39_6 2.611024 1_555
S24_6 Zr39_0 2.611024 1_665
S24_6 Zr30_4 2.618238 1_565
S24_6 Zr30_6 2.618240 1_555
S24_6 Zr30_0 2.618240 1_665
S24_7 Zr39_5 2.611021 1_565
S24_7 Zr39_7 2.611024 1_555
S24_7 Zr39_1 2.611024 1_665
S24_7 Zr30_5 2.618238 1_565
S24_7 Zr30_7 2.618240 1_555
S24_7 Zr30_1 2.618240 1_665
S25_0 Zr30_2 2.621535 1_455
S25_0 Zr30_0 2.621537 1_555
S25_0 Zr30_6 2.621537 1_555
S25_0 Zr25_2 2.631734 1_455
S25_0 Zr25_6 2.631736 1_555
S25_0 Zr25_0 2.631736 1_555
S25_1 Zr30_3 2.621535 1_455
S25_1 Zr30_1 2.621537 1_555
S25_1 Zr30_7 2.621537 1_555
S25_1 Zr25_3 2.631734 1_455
S25_1 Zr25_1 2.631736 1_555
S25_1 Zr25_7 2.631736 1_555
S25_2 Zr30_0 2.621535 1_565
S25_2 Zr30_4 2.621537 1_565
S25_2 Zr30_2 2.621537 1_455
S25_2 Zr25_0 2.631734 1_565
S25_2 Zr25_2 2.631736 1_455
S25_2 Zr25_4 2.631736 1_565
S25_3 Zr30_1 2.621535 1_565
S25_3 Zr30_3 2.621537 1_455
S25_3 Zr30_5 2.621537 1_565
S25_3 Zr25_1 2.631734 1_565
S25_3 Zr25_5 2.631736 1_565
S25_3 Zr25_3 2.631736 1_455
S25_4 Zr30_6 2.621535 1_555
S25_4 Zr30_4 2.621537 1_555
S25_4 Zr30_2 2.621537 1_555
S25_4 Zr25_6 2.631734 1_555
S25_4 Zr25_4 2.631736 1_555
S25_4 Zr25_2 2.631736 1_555
S25_5 Zr30_7 2.621535 1_555
S25_5 Zr30_5 2.621537 1_555
S25_5 Zr30_3 2.621537 1_555
S25_5 Zr25_7 2.631734 1_555
S25_5 Zr25_5 2.631736 1_555
S25_5 Zr25_3 2.631736 1_555
S25_6 Zr30_4 2.621535 1_565
S25_6 Zr30_6 2.621537 1_555
S25_6 Zr30_0 2.621537 1_665
S25_6 Zr25_4 2.631734 1_565
S25_6 Zr25_6 2.631736 1_555
S25_6 Zr25_0 2.631736 1_665
S25_7 Zr30_5 2.621535 1_565
S25_7 Zr30_7 2.621537 1_555
S25_7 Zr30_1 2.621537 1_665
S25_7 Zr25_5 2.631734 1_565
S25_7 Zr25_7 2.631736 1_555
S25_7 Zr25_1 2.631736 1_665
S26_0 Zr25_2 2.633946 1_455
S26_0 Zr25_6 2.633948 1_555
S26_0 Zr25_0 2.633948 1_555
S26_0 Zr26_3 2.634407 1_455
S26_0 Zr26_7 2.634409 1_555
S26_0 Zr26_1 2.634409 1_555
S26_1 Zr25_3 2.633946 1_455
S26_1 Zr25_1 2.633948 1_555
S26_1 Zr25_7 2.633948 1_555
S26_1 Zr26_2 2.634407 1_456
S26_1 Zr26_6 2.634409 1_556
S26_1 Zr26_0 2.634409 1_556
S26_2 Zr25_0 2.633946 1_565
S26_2 Zr25_2 2.633948 1_455
S26_2 Zr25_4 2.633948 1_565
S26_2 Zr26_1 2.634407 1_565
S26_2 Zr26_5 2.634409 1_565
S26_2 Zr26_3 2.634409 1_455
S26_3 Zr25_1 2.633946 1_565
S26_3 Zr25_5 2.633948 1_565
S26_3 Zr25_3 2.633948 1_455
S26_3 Zr26_0 2.634407 1_566
S26_3 Zr26_4 2.634409 1_566
S26_3 Zr26_2 2.634409 1_456
S26_4 Zr25_6 2.633946 1_555
S26_4 Zr25_4 2.633948 1_555
S26_4 Zr25_2 2.633948 1_555
S26_4 Zr26_7 2.634407 1_555
S26_4 Zr26_5 2.634409 1_555
S26_4 Zr26_3 2.634409 1_555
S26_5 Zr25_7 2.633946 1_555
S26_5 Zr25_3 2.633948 1_555
S26_5 Zr25_5 2.633948 1_555
S26_5 Zr26_6 2.634407 1_556
S26_5 Zr26_2 2.634409 1_556
S26_5 Zr26_4 2.634409 1_556
S26_6 Zr25_4 2.633946 1_565
S26_6 Zr25_6 2.633948 1_555
S26_6 Zr25_0 2.633948 1_665
S26_6 Zr26_5 2.634407 1_565
S26_6 Zr26_7 2.634409 1_555
S26_6 Zr26_1 2.634409 1_665
S26_7 Zr25_5 2.633946 1_565
S26_7 Zr25_7 2.633948 1_555
S26_7 Zr25_1 2.633948 1_665
S26_7 Zr26_4 2.634407 1_566
S26_7 Zr26_6 2.634409 1_556
S26_7 Zr26_0 2.634409 1_666
