# generated using pymatgen
data_Ti9Cu2(B4Ru9)2
_symmetry_space_group_name_H-M   'P 1'
_cell_length_a   35.22859000
_cell_length_b   35.22859000
_cell_length_c   5.98991200
_cell_angle_alpha   90.00000000
_cell_angle_beta   90.00000000
_cell_angle_gamma   90.00000000
_symmetry_Int_Tables_number   1
_chemical_formula_structural   Ti9Cu2(B4Ru9)2
_chemical_formula_sum   'Ti144 Cu32 B128 Ru288'
_cell_volume   7433.80157208
_cell_formula_units_Z   16
loop_
 _symmetry_equiv_pos_site_id
 _symmetry_equiv_pos_as_xyz
  1  'x, y, z'
loop_
 _atom_site_type_symbol
 _atom_site_label
 _atom_site_symmetry_multiplicity
 _atom_site_fract_x
 _atom_site_fract_y
 _atom_site_fract_z
 _atom_site_occupancy
  Ti  Ti0_0  1  0.40206100  0.15206100  0.25000000  1
  Ti  Ti0_1  1  0.40206100  0.15206100  0.75000000  1
  Ti  Ti0_2  1  0.40206100  0.65206100  0.25000000  1
  Ti  Ti0_3  1  0.40206100  0.65206100  0.75000000  1
  Ti  Ti0_4  1  0.90206100  0.15206100  0.25000000  1
  Ti  Ti0_5  1  0.90206100  0.15206100  0.75000000  1
  Ti  Ti0_6  1  0.90206100  0.65206100  0.25000000  1
  Ti  Ti0_7  1  0.90206100  0.65206100  0.75000000  1
  Ti  Ti1_0  1  0.09793900  0.34793900  0.25000000  1
  Ti  Ti1_1  1  0.09793900  0.34793900  0.75000000  1
  Ti  Ti1_2  1  0.09793900  0.84793900  0.25000000  1
  Ti  Ti1_3  1  0.09793900  0.84793900  0.75000000  1
  Ti  Ti1_4  1  0.59793900  0.34793900  0.25000000  1
  Ti  Ti1_5  1  0.59793900  0.34793900  0.75000000  1
  Ti  Ti1_6  1  0.59793900  0.84793900  0.25000000  1
  Ti  Ti1_7  1  0.59793900  0.84793900  0.75000000  1
  Ti  Ti2_0  1  0.15206100  0.09793900  0.25000000  1
  Ti  Ti2_1  1  0.15206100  0.09793900  0.75000000  1
  Ti  Ti2_2  1  0.15206100  0.59793900  0.25000000  1
  Ti  Ti2_3  1  0.15206100  0.59793900  0.75000000  1
  Ti  Ti2_4  1  0.65206100  0.09793900  0.25000000  1
  Ti  Ti2_5  1  0.65206100  0.09793900  0.75000000  1
  Ti  Ti2_6  1  0.65206100  0.59793900  0.25000000  1
  Ti  Ti2_7  1  0.65206100  0.59793900  0.75000000  1
  Ti  Ti3_0  1  0.34793900  0.40206100  0.25000000  1
  Ti  Ti3_1  1  0.34793900  0.40206100  0.75000000  1
  Ti  Ti3_2  1  0.34793900  0.90206100  0.25000000  1
  Ti  Ti3_3  1  0.34793900  0.90206100  0.75000000  1
  Ti  Ti3_4  1  0.84793900  0.40206100  0.25000000  1
  Ti  Ti3_5  1  0.84793900  0.40206100  0.75000000  1
  Ti  Ti3_6  1  0.84793900  0.90206100  0.25000000  1
  Ti  Ti3_7  1  0.84793900  0.90206100  0.75000000  1
  Ti  Ti4_0  1  0.25000000  0.25000000  0.25000000  1
  Ti  Ti4_1  1  0.25000000  0.25000000  0.75000000  1
  Ti  Ti4_2  1  0.25000000  0.75000000  0.25000000  1
  Ti  Ti4_3  1  0.25000000  0.75000000  0.75000000  1
  Ti  Ti4_4  1  0.75000000  0.25000000  0.25000000  1
  Ti  Ti4_5  1  0.75000000  0.25000000  0.75000000  1
  Ti  Ti4_6  1  0.75000000  0.75000000  0.25000000  1
  Ti  Ti4_7  1  0.75000000  0.75000000  0.75000000  1
  Ti  Ti5_0  1  0.00000000  0.00000000  0.25000000  1
  Ti  Ti5_1  1  0.00000000  0.00000000  0.75000000  1
  Ti  Ti5_2  1  0.00000000  0.50000000  0.25000000  1
  Ti  Ti5_3  1  0.00000000  0.50000000  0.75000000  1
  Ti  Ti5_4  1  0.50000000  0.00000000  0.25000000  1
  Ti  Ti5_5  1  0.50000000  0.00000000  0.75000000  1
  Ti  Ti5_6  1  0.50000000  0.50000000  0.25000000  1
  Ti  Ti5_7  1  0.50000000  0.50000000  0.75000000  1
  Ti  Ti6_0  1  0.34399000  0.26751150  0.25000000  1
  Ti  Ti6_1  1  0.34399000  0.26751150  0.75000000  1
  Ti  Ti6_2  1  0.34399000  0.76751150  0.25000000  1
  Ti  Ti6_3  1  0.34399000  0.76751150  0.75000000  1
  Ti  Ti6_4  1  0.84399000  0.26751150  0.25000000  1
  Ti  Ti6_5  1  0.84399000  0.26751150  0.75000000  1
  Ti  Ti6_6  1  0.84399000  0.76751150  0.25000000  1
  Ti  Ti6_7  1  0.84399000  0.76751150  0.75000000  1
  Ti  Ti7_0  1  0.15601000  0.23248850  0.25000000  1
  Ti  Ti7_1  1  0.15601000  0.23248850  0.75000000  1
  Ti  Ti7_2  1  0.15601000  0.73248850  0.25000000  1
  Ti  Ti7_3  1  0.15601000  0.73248850  0.75000000  1
  Ti  Ti7_4  1  0.65601000  0.23248850  0.25000000  1
  Ti  Ti7_5  1  0.65601000  0.23248850  0.75000000  1
  Ti  Ti7_6  1  0.65601000  0.73248850  0.25000000  1
  Ti  Ti7_7  1  0.65601000  0.73248850  0.75000000  1
  Ti  Ti8_0  1  0.09399000  0.48248850  0.25000000  1
  Ti  Ti8_1  1  0.09399000  0.48248850  0.75000000  1
  Ti  Ti8_2  1  0.09399000  0.98248850  0.25000000  1
  Ti  Ti8_3  1  0.09399000  0.98248850  0.75000000  1
  Ti  Ti8_4  1  0.59399000  0.48248850  0.25000000  1
  Ti  Ti8_5  1  0.59399000  0.48248850  0.75000000  1
  Ti  Ti8_6  1  0.59399000  0.98248850  0.25000000  1
  Ti  Ti8_7  1  0.59399000  0.98248850  0.75000000  1
  Ti  Ti9_0  1  0.40601000  0.01751150  0.25000000  1
  Ti  Ti9_1  1  0.40601000  0.01751150  0.75000000  1
  Ti  Ti9_2  1  0.40601000  0.51751150  0.25000000  1
  Ti  Ti9_3  1  0.40601000  0.51751150  0.75000000  1
  Ti  Ti9_4  1  0.90601000  0.01751150  0.25000000  1
  Ti  Ti9_5  1  0.90601000  0.01751150  0.75000000  1
  Ti  Ti9_6  1  0.90601000  0.51751150  0.25000000  1
  Ti  Ti9_7  1  0.90601000  0.51751150  0.75000000  1
  Ti  Ti10_0  1  0.23248850  0.34399000  0.25000000  1
  Ti  Ti10_1  1  0.23248850  0.34399000  0.75000000  1
  Ti  Ti10_2  1  0.23248850  0.84399000  0.25000000  1
  Ti  Ti10_3  1  0.23248850  0.84399000  0.75000000  1
  Ti  Ti10_4  1  0.73248850  0.34399000  0.25000000  1
  Ti  Ti10_5  1  0.73248850  0.34399000  0.75000000  1
  Ti  Ti10_6  1  0.73248850  0.84399000  0.25000000  1
  Ti  Ti10_7  1  0.73248850  0.84399000  0.75000000  1
  Ti  Ti11_0  1  0.26751150  0.15601000  0.25000000  1
  Ti  Ti11_1  1  0.26751150  0.15601000  0.75000000  1
  Ti  Ti11_2  1  0.26751150  0.65601000  0.25000000  1
  Ti  Ti11_3  1  0.26751150  0.65601000  0.75000000  1
  Ti  Ti11_4  1  0.76751150  0.15601000  0.25000000  1
  Ti  Ti11_5  1  0.76751150  0.15601000  0.75000000  1
  Ti  Ti11_6  1  0.76751150  0.65601000  0.25000000  1
  Ti  Ti11_7  1  0.76751150  0.65601000  0.75000000  1
  Ti  Ti12_0  1  0.01751150  0.09399000  0.25000000  1
  Ti  Ti12_1  1  0.01751150  0.09399000  0.75000000  1
  Ti  Ti12_2  1  0.01751150  0.59399000  0.25000000  1
  Ti  Ti12_3  1  0.01751150  0.59399000  0.75000000  1
  Ti  Ti12_4  1  0.51751150  0.09399000  0.25000000  1
  Ti  Ti12_5  1  0.51751150  0.09399000  0.75000000  1
  Ti  Ti12_6  1  0.51751150  0.59399000  0.25000000  1
  Ti  Ti12_7  1  0.51751150  0.59399000  0.75000000  1
  Ti  Ti13_0  1  0.48248850  0.40601000  0.25000000  1
  Ti  Ti13_1  1  0.48248850  0.40601000  0.75000000  1
  Ti  Ti13_2  1  0.48248850  0.90601000  0.25000000  1
  Ti  Ti13_3  1  0.48248850  0.90601000  0.75000000  1
  Ti  Ti13_4  1  0.98248850  0.40601000  0.25000000  1
  Ti  Ti13_5  1  0.98248850  0.40601000  0.75000000  1
  Ti  Ti13_6  1  0.98248850  0.90601000  0.25000000  1
  Ti  Ti13_7  1  0.98248850  0.90601000  0.75000000  1
  Ti  Ti14_0  1  0.41456600  0.33543400  0.25000000  1
  Ti  Ti14_1  1  0.41456600  0.33543400  0.75000000  1
  Ti  Ti14_2  1  0.41456600  0.83543400  0.25000000  1
  Ti  Ti14_3  1  0.41456600  0.83543400  0.75000000  1
  Ti  Ti14_4  1  0.91456600  0.33543400  0.25000000  1
  Ti  Ti14_5  1  0.91456600  0.33543400  0.75000000  1
  Ti  Ti14_6  1  0.91456600  0.83543400  0.25000000  1
  Ti  Ti14_7  1  0.91456600  0.83543400  0.75000000  1
  Ti  Ti15_0  1  0.08543400  0.16456600  0.25000000  1
  Ti  Ti15_1  1  0.08543400  0.16456600  0.75000000  1
  Ti  Ti15_2  1  0.08543400  0.66456600  0.25000000  1
  Ti  Ti15_3  1  0.08543400  0.66456600  0.75000000  1
  Ti  Ti15_4  1  0.58543400  0.16456600  0.25000000  1
  Ti  Ti15_5  1  0.58543400  0.16456600  0.75000000  1
  Ti  Ti15_6  1  0.58543400  0.66456600  0.25000000  1
  Ti  Ti15_7  1  0.58543400  0.66456600  0.75000000  1
  Ti  Ti16_0  1  0.16456600  0.41456600  0.25000000  1
  Ti  Ti16_1  1  0.16456600  0.41456600  0.75000000  1
  Ti  Ti16_2  1  0.16456600  0.91456600  0.25000000  1
  Ti  Ti16_3  1  0.16456600  0.91456600  0.75000000  1
  Ti  Ti16_4  1  0.66456600  0.41456600  0.25000000  1
  Ti  Ti16_5  1  0.66456600  0.41456600  0.75000000  1
  Ti  Ti16_6  1  0.66456600  0.91456600  0.25000000  1
  Ti  Ti16_7  1  0.66456600  0.91456600  0.75000000  1
  Ti  Ti17_0  1  0.33543400  0.08543400  0.25000000  1
  Ti  Ti17_1  1  0.33543400  0.08543400  0.75000000  1
  Ti  Ti17_2  1  0.33543400  0.58543400  0.25000000  1
  Ti  Ti17_3  1  0.33543400  0.58543400  0.75000000  1
  Ti  Ti17_4  1  0.83543400  0.08543400  0.25000000  1
  Ti  Ti17_5  1  0.83543400  0.08543400  0.75000000  1
  Ti  Ti17_6  1  0.83543400  0.58543400  0.25000000  1
  Ti  Ti17_7  1  0.83543400  0.58543400  0.75000000  1
  Cu  Cu0_0  1  0.47537650  0.27462350  0.25000000  1
  Cu  Cu0_1  1  0.47537650  0.27462350  0.75000000  1
  Cu  Cu0_2  1  0.47537650  0.77462350  0.25000000  1
  Cu  Cu0_3  1  0.47537650  0.77462350  0.75000000  1
  Cu  Cu0_4  1  0.97537650  0.27462350  0.25000000  1
  Cu  Cu0_5  1  0.97537650  0.27462350  0.75000000  1
  Cu  Cu0_6  1  0.97537650  0.77462350  0.25000000  1
  Cu  Cu0_7  1  0.97537650  0.77462350  0.75000000  1
  Cu  Cu1_0  1  0.02462350  0.22537650  0.25000000  1
  Cu  Cu1_1  1  0.02462350  0.22537650  0.75000000  1
  Cu  Cu1_2  1  0.02462350  0.72537650  0.25000000  1
  Cu  Cu1_3  1  0.02462350  0.72537650  0.75000000  1
  Cu  Cu1_4  1  0.52462350  0.22537650  0.25000000  1
  Cu  Cu1_5  1  0.52462350  0.22537650  0.75000000  1
  Cu  Cu1_6  1  0.52462350  0.72537650  0.25000000  1
  Cu  Cu1_7  1  0.52462350  0.72537650  0.75000000  1
  Cu  Cu2_0  1  0.22537650  0.47537650  0.25000000  1
  Cu  Cu2_1  1  0.22537650  0.47537650  0.75000000  1
  Cu  Cu2_2  1  0.22537650  0.97537650  0.25000000  1
  Cu  Cu2_3  1  0.22537650  0.97537650  0.75000000  1
  Cu  Cu2_4  1  0.72537650  0.47537650  0.25000000  1
  Cu  Cu2_5  1  0.72537650  0.47537650  0.75000000  1
  Cu  Cu2_6  1  0.72537650  0.97537650  0.25000000  1
  Cu  Cu2_7  1  0.72537650  0.97537650  0.75000000  1
  Cu  Cu3_0  1  0.27462350  0.02462350  0.25000000  1
  Cu  Cu3_1  1  0.27462350  0.02462350  0.75000000  1
  Cu  Cu3_2  1  0.27462350  0.52462350  0.25000000  1
  Cu  Cu3_3  1  0.27462350  0.52462350  0.75000000  1
  Cu  Cu3_4  1  0.77462350  0.02462350  0.25000000  1
  Cu  Cu3_5  1  0.77462350  0.02462350  0.75000000  1
  Cu  Cu3_6  1  0.77462350  0.52462350  0.25000000  1
  Cu  Cu3_7  1  0.77462350  0.52462350  0.75000000  1
  B  B0_0  1  0.33474200  0.18928050  0.25000000  1
  B  B0_1  1  0.33474200  0.18928050  0.75000000  1
  B  B0_2  1  0.33474200  0.68928050  0.25000000  1
  B  B0_3  1  0.33474200  0.68928050  0.75000000  1
  B  B0_4  1  0.83474200  0.18928050  0.25000000  1
  B  B0_5  1  0.83474200  0.18928050  0.75000000  1
  B  B0_6  1  0.83474200  0.68928050  0.25000000  1
  B  B0_7  1  0.83474200  0.68928050  0.75000000  1
  B  B1_0  1  0.16525800  0.31071950  0.25000000  1
  B  B1_1  1  0.16525800  0.31071950  0.75000000  1
  B  B1_2  1  0.16525800  0.81071950  0.25000000  1
  B  B1_3  1  0.16525800  0.81071950  0.75000000  1
  B  B1_4  1  0.66525800  0.31071950  0.25000000  1
  B  B1_5  1  0.66525800  0.31071950  0.75000000  1
  B  B1_6  1  0.66525800  0.81071950  0.25000000  1
  B  B1_7  1  0.66525800  0.81071950  0.75000000  1
  B  B2_0  1  0.08474200  0.06071950  0.25000000  1
  B  B2_1  1  0.08474200  0.06071950  0.75000000  1
  B  B2_2  1  0.08474200  0.56071950  0.25000000  1
  B  B2_3  1  0.08474200  0.56071950  0.75000000  1
  B  B2_4  1  0.58474200  0.06071950  0.25000000  1
  B  B2_5  1  0.58474200  0.06071950  0.75000000  1
  B  B2_6  1  0.58474200  0.56071950  0.25000000  1
  B  B2_7  1  0.58474200  0.56071950  0.75000000  1
  B  B3_0  1  0.41525800  0.43928050  0.25000000  1
  B  B3_1  1  0.41525800  0.43928050  0.75000000  1
  B  B3_2  1  0.41525800  0.93928050  0.25000000  1
  B  B3_3  1  0.41525800  0.93928050  0.75000000  1
  B  B3_4  1  0.91525800  0.43928050  0.25000000  1
  B  B3_5  1  0.91525800  0.43928050  0.75000000  1
  B  B3_6  1  0.91525800  0.93928050  0.25000000  1
  B  B3_7  1  0.91525800  0.93928050  0.75000000  1
  B  B4_0  1  0.31071950  0.33474200  0.25000000  1
  B  B4_1  1  0.31071950  0.33474200  0.75000000  1
  B  B4_2  1  0.31071950  0.83474200  0.25000000  1
  B  B4_3  1  0.31071950  0.83474200  0.75000000  1
  B  B4_4  1  0.81071950  0.33474200  0.25000000  1
  B  B4_5  1  0.81071950  0.33474200  0.75000000  1
  B  B4_6  1  0.81071950  0.83474200  0.25000000  1
  B  B4_7  1  0.81071950  0.83474200  0.75000000  1
  B  B5_0  1  0.18928050  0.16525800  0.25000000  1
  B  B5_1  1  0.18928050  0.16525800  0.75000000  1
  B  B5_2  1  0.18928050  0.66525800  0.25000000  1
  B  B5_3  1  0.18928050  0.66525800  0.75000000  1
  B  B5_4  1  0.68928050  0.16525800  0.25000000  1
  B  B5_5  1  0.68928050  0.16525800  0.75000000  1
  B  B5_6  1  0.68928050  0.66525800  0.25000000  1
  B  B5_7  1  0.68928050  0.66525800  0.75000000  1
  B  B6_0  1  0.43928050  0.08474200  0.25000000  1
  B  B6_1  1  0.43928050  0.08474200  0.75000000  1
  B  B6_2  1  0.43928050  0.58474200  0.25000000  1
  B  B6_3  1  0.43928050  0.58474200  0.75000000  1
  B  B6_4  1  0.93928050  0.08474200  0.25000000  1
  B  B6_5  1  0.93928050  0.08474200  0.75000000  1
  B  B6_6  1  0.93928050  0.58474200  0.25000000  1
  B  B6_7  1  0.93928050  0.58474200  0.75000000  1
  B  B7_0  1  0.06071950  0.41525800  0.25000000  1
  B  B7_1  1  0.06071950  0.41525800  0.75000000  1
  B  B7_2  1  0.06071950  0.91525800  0.25000000  1
  B  B7_3  1  0.06071950  0.91525800  0.75000000  1
  B  B7_4  1  0.56071950  0.41525800  0.25000000  1
  B  B7_5  1  0.56071950  0.41525800  0.75000000  1
  B  B7_6  1  0.56071950  0.91525800  0.25000000  1
  B  B7_7  1  0.56071950  0.91525800  0.75000000  1
  B  B8_0  1  0.41777550  0.23119000  0.25000000  1
  B  B8_1  1  0.41777550  0.23119000  0.75000000  1
  B  B8_2  1  0.41777550  0.73119000  0.25000000  1
  B  B8_3  1  0.41777550  0.73119000  0.75000000  1
  B  B8_4  1  0.91777550  0.23119000  0.25000000  1
  B  B8_5  1  0.91777550  0.23119000  0.75000000  1
  B  B8_6  1  0.91777550  0.73119000  0.25000000  1
  B  B8_7  1  0.91777550  0.73119000  0.75000000  1
  B  B9_0  1  0.08222450  0.26881000  0.25000000  1
  B  B9_1  1  0.08222450  0.26881000  0.75000000  1
  B  B9_2  1  0.08222450  0.76881000  0.25000000  1
  B  B9_3  1  0.08222450  0.76881000  0.75000000  1
  B  B9_4  1  0.58222450  0.26881000  0.25000000  1
  B  B9_5  1  0.58222450  0.26881000  0.75000000  1
  B  B9_6  1  0.58222450  0.76881000  0.25000000  1
  B  B9_7  1  0.58222450  0.76881000  0.75000000  1
  B  B10_0  1  0.16777550  0.01881000  0.25000000  1
  B  B10_1  1  0.16777550  0.01881000  0.75000000  1
  B  B10_2  1  0.16777550  0.51881000  0.25000000  1
  B  B10_3  1  0.16777550  0.51881000  0.75000000  1
  B  B10_4  1  0.66777550  0.01881000  0.25000000  1
  B  B10_5  1  0.66777550  0.01881000  0.75000000  1
  B  B10_6  1  0.66777550  0.51881000  0.25000000  1
  B  B10_7  1  0.66777550  0.51881000  0.75000000  1
  B  B11_0  1  0.33222450  0.48119000  0.25000000  1
  B  B11_1  1  0.33222450  0.48119000  0.75000000  1
  B  B11_2  1  0.33222450  0.98119000  0.25000000  1
  B  B11_3  1  0.33222450  0.98119000  0.75000000  1
  B  B11_4  1  0.83222450  0.48119000  0.25000000  1
  B  B11_5  1  0.83222450  0.48119000  0.75000000  1
  B  B11_6  1  0.83222450  0.98119000  0.25000000  1
  B  B11_7  1  0.83222450  0.98119000  0.75000000  1
  B  B12_0  1  0.26881000  0.41777550  0.25000000  1
  B  B12_1  1  0.26881000  0.41777550  0.75000000  1
  B  B12_2  1  0.26881000  0.91777550  0.25000000  1
  B  B12_3  1  0.26881000  0.91777550  0.75000000  1
  B  B12_4  1  0.76881000  0.41777550  0.25000000  1
  B  B12_5  1  0.76881000  0.41777550  0.75000000  1
  B  B12_6  1  0.76881000  0.91777550  0.25000000  1
  B  B12_7  1  0.76881000  0.91777550  0.75000000  1
  B  B13_0  1  0.23119000  0.08222450  0.25000000  1
  B  B13_1  1  0.23119000  0.08222450  0.75000000  1
  B  B13_2  1  0.23119000  0.58222450  0.25000000  1
  B  B13_3  1  0.23119000  0.58222450  0.75000000  1
  B  B13_4  1  0.73119000  0.08222450  0.25000000  1
  B  B13_5  1  0.73119000  0.08222450  0.75000000  1
  B  B13_6  1  0.73119000  0.58222450  0.25000000  1
  B  B13_7  1  0.73119000  0.58222450  0.75000000  1
  B  B14_0  1  0.48119000  0.16777550  0.25000000  1
  B  B14_1  1  0.48119000  0.16777550  0.75000000  1
  B  B14_2  1  0.48119000  0.66777550  0.25000000  1
  B  B14_3  1  0.48119000  0.66777550  0.75000000  1
  B  B14_4  1  0.98119000  0.16777550  0.25000000  1
  B  B14_5  1  0.98119000  0.16777550  0.75000000  1
  B  B14_6  1  0.98119000  0.66777550  0.25000000  1
  B  B14_7  1  0.98119000  0.66777550  0.75000000  1
  B  B15_0  1  0.01881000  0.33222450  0.25000000  1
  B  B15_1  1  0.01881000  0.33222450  0.75000000  1
  B  B15_2  1  0.01881000  0.83222450  0.25000000  1
  B  B15_3  1  0.01881000  0.83222450  0.75000000  1
  B  B15_4  1  0.51881000  0.33222450  0.25000000  1
  B  B15_5  1  0.51881000  0.33222450  0.75000000  1
  B  B15_6  1  0.51881000  0.83222450  0.25000000  1
  B  B15_7  1  0.51881000  0.83222450  0.75000000  1
  Ru  Ru0_0  1  0.37669850  0.20948550  0.00000000  1
  Ru  Ru0_1  1  0.37669850  0.20948550  0.50000000  1
  Ru  Ru0_2  1  0.37669850  0.70948550  0.00000000  1
  Ru  Ru0_3  1  0.37669850  0.70948550  0.50000000  1
  Ru  Ru0_4  1  0.87669850  0.20948550  0.00000000  1
  Ru  Ru0_5  1  0.87669850  0.20948550  0.50000000  1
  Ru  Ru0_6  1  0.87669850  0.70948550  0.00000000  1
  Ru  Ru0_7  1  0.87669850  0.70948550  0.50000000  1
  Ru  Ru1_0  1  0.12330150  0.29051450  0.00000000  1
  Ru  Ru1_1  1  0.12330150  0.29051450  0.50000000  1
  Ru  Ru1_2  1  0.12330150  0.79051450  0.00000000  1
  Ru  Ru1_3  1  0.12330150  0.79051450  0.50000000  1
  Ru  Ru1_4  1  0.62330150  0.29051450  0.00000000  1
  Ru  Ru1_5  1  0.62330150  0.29051450  0.50000000  1
  Ru  Ru1_6  1  0.62330150  0.79051450  0.00000000  1
  Ru  Ru1_7  1  0.62330150  0.79051450  0.50000000  1
  Ru  Ru2_0  1  0.12669850  0.04051450  0.00000000  1
  Ru  Ru2_1  1  0.12669850  0.04051450  0.50000000  1
  Ru  Ru2_2  1  0.12669850  0.54051450  0.00000000  1
  Ru  Ru2_3  1  0.12669850  0.54051450  0.50000000  1
  Ru  Ru2_4  1  0.62669850  0.04051450  0.00000000  1
  Ru  Ru2_5  1  0.62669850  0.04051450  0.50000000  1
  Ru  Ru2_6  1  0.62669850  0.54051450  0.00000000  1
  Ru  Ru2_7  1  0.62669850  0.54051450  0.50000000  1
  Ru  Ru3_0  1  0.37330150  0.45948550  0.00000000  1
  Ru  Ru3_1  1  0.37330150  0.45948550  0.50000000  1
  Ru  Ru3_2  1  0.37330150  0.95948550  0.00000000  1
  Ru  Ru3_3  1  0.37330150  0.95948550  0.50000000  1
  Ru  Ru3_4  1  0.87330150  0.45948550  0.00000000  1
  Ru  Ru3_5  1  0.87330150  0.45948550  0.50000000  1
  Ru  Ru3_6  1  0.87330150  0.95948550  0.00000000  1
  Ru  Ru3_7  1  0.87330150  0.95948550  0.50000000  1
  Ru  Ru4_0  1  0.29051450  0.37669850  0.00000000  1
  Ru  Ru4_1  1  0.29051450  0.37669850  0.50000000  1
  Ru  Ru4_2  1  0.29051450  0.87669850  0.00000000  1
  Ru  Ru4_3  1  0.29051450  0.87669850  0.50000000  1
  Ru  Ru4_4  1  0.79051450  0.37669850  0.00000000  1
  Ru  Ru4_5  1  0.79051450  0.37669850  0.50000000  1
  Ru  Ru4_6  1  0.79051450  0.87669850  0.00000000  1
  Ru  Ru4_7  1  0.79051450  0.87669850  0.50000000  1
  Ru  Ru5_0  1  0.20948550  0.12330150  0.00000000  1
  Ru  Ru5_1  1  0.20948550  0.12330150  0.50000000  1
  Ru  Ru5_2  1  0.20948550  0.62330150  0.00000000  1
  Ru  Ru5_3  1  0.20948550  0.62330150  0.50000000  1
  Ru  Ru5_4  1  0.70948550  0.12330150  0.00000000  1
  Ru  Ru5_5  1  0.70948550  0.12330150  0.50000000  1
  Ru  Ru5_6  1  0.70948550  0.62330150  0.00000000  1
  Ru  Ru5_7  1  0.70948550  0.62330150  0.50000000  1
  Ru  Ru6_0  1  0.45948550  0.12669850  0.00000000  1
  Ru  Ru6_1  1  0.45948550  0.12669850  0.50000000  1
  Ru  Ru6_2  1  0.45948550  0.62669850  0.00000000  1
  Ru  Ru6_3  1  0.45948550  0.62669850  0.50000000  1
  Ru  Ru6_4  1  0.95948550  0.12669850  0.00000000  1
  Ru  Ru6_5  1  0.95948550  0.12669850  0.50000000  1
  Ru  Ru6_6  1  0.95948550  0.62669850  0.00000000  1
  Ru  Ru6_7  1  0.95948550  0.62669850  0.50000000  1
  Ru  Ru7_0  1  0.04051450  0.37330150  0.00000000  1
  Ru  Ru7_1  1  0.04051450  0.37330150  0.50000000  1
  Ru  Ru7_2  1  0.04051450  0.87330150  0.00000000  1
  Ru  Ru7_3  1  0.04051450  0.87330150  0.50000000  1
  Ru  Ru7_4  1  0.54051450  0.37330150  0.00000000  1
  Ru  Ru7_5  1  0.54051450  0.37330150  0.50000000  1
  Ru  Ru7_6  1  0.54051450  0.87330150  0.00000000  1
  Ru  Ru7_7  1  0.54051450  0.87330150  0.50000000  1
  Ru  Ru8_0  1  0.45770250  0.20770250  0.00000000  1
  Ru  Ru8_1  1  0.45770250  0.20770250  0.50000000  1
  Ru  Ru8_2  1  0.45770250  0.70770250  0.00000000  1
  Ru  Ru8_3  1  0.45770250  0.70770250  0.50000000  1
  Ru  Ru8_4  1  0.95770250  0.20770250  0.00000000  1
  Ru  Ru8_5  1  0.95770250  0.20770250  0.50000000  1
  Ru  Ru8_6  1  0.95770250  0.70770250  0.00000000  1
  Ru  Ru8_7  1  0.95770250  0.70770250  0.50000000  1
  Ru  Ru9_0  1  0.04229750  0.29229750  0.00000000  1
  Ru  Ru9_1  1  0.04229750  0.29229750  0.50000000  1
  Ru  Ru9_2  1  0.04229750  0.79229750  0.00000000  1
  Ru  Ru9_3  1  0.04229750  0.79229750  0.50000000  1
  Ru  Ru9_4  1  0.54229750  0.29229750  0.00000000  1
  Ru  Ru9_5  1  0.54229750  0.29229750  0.50000000  1
  Ru  Ru9_6  1  0.54229750  0.79229750  0.00000000  1
  Ru  Ru9_7  1  0.54229750  0.79229750  0.50000000  1
  Ru  Ru10_0  1  0.20770250  0.04229750  0.00000000  1
  Ru  Ru10_1  1  0.20770250  0.04229750  0.50000000  1
  Ru  Ru10_2  1  0.20770250  0.54229750  0.00000000  1
  Ru  Ru10_3  1  0.20770250  0.54229750  0.50000000  1
  Ru  Ru10_4  1  0.70770250  0.04229750  0.00000000  1
  Ru  Ru10_5  1  0.70770250  0.04229750  0.50000000  1
  Ru  Ru10_6  1  0.70770250  0.54229750  0.00000000  1
  Ru  Ru10_7  1  0.70770250  0.54229750  0.50000000  1
  Ru  Ru11_0  1  0.29229750  0.45770250  0.00000000  1
  Ru  Ru11_1  1  0.29229750  0.45770250  0.50000000  1
  Ru  Ru11_2  1  0.29229750  0.95770250  0.00000000  1
  Ru  Ru11_3  1  0.29229750  0.95770250  0.50000000  1
  Ru  Ru11_4  1  0.79229750  0.45770250  0.00000000  1
  Ru  Ru11_5  1  0.79229750  0.45770250  0.50000000  1
  Ru  Ru11_6  1  0.79229750  0.95770250  0.00000000  1
  Ru  Ru11_7  1  0.79229750  0.95770250  0.50000000  1
  Ru  Ru12_0  1  0.41331550  0.27572300  0.00000000  1
  Ru  Ru12_1  1  0.41331550  0.27572300  0.50000000  1
  Ru  Ru12_2  1  0.41331550  0.77572300  0.00000000  1
  Ru  Ru12_3  1  0.41331550  0.77572300  0.50000000  1
  Ru  Ru12_4  1  0.91331550  0.27572300  0.00000000  1
  Ru  Ru12_5  1  0.91331550  0.27572300  0.50000000  1
  Ru  Ru12_6  1  0.91331550  0.77572300  0.00000000  1
  Ru  Ru12_7  1  0.91331550  0.77572300  0.50000000  1
  Ru  Ru13_0  1  0.08668450  0.22427700  0.00000000  1
  Ru  Ru13_1  1  0.08668450  0.22427700  0.50000000  1
  Ru  Ru13_2  1  0.08668450  0.72427700  0.00000000  1
  Ru  Ru13_3  1  0.08668450  0.72427700  0.50000000  1
  Ru  Ru13_4  1  0.58668450  0.22427700  0.00000000  1
  Ru  Ru13_5  1  0.58668450  0.22427700  0.50000000  1
  Ru  Ru13_6  1  0.58668450  0.72427700  0.00000000  1
  Ru  Ru13_7  1  0.58668450  0.72427700  0.50000000  1
  Ru  Ru14_0  1  0.16331550  0.47427700  0.00000000  1
  Ru  Ru14_1  1  0.16331550  0.47427700  0.50000000  1
  Ru  Ru14_2  1  0.16331550  0.97427700  0.00000000  1
  Ru  Ru14_3  1  0.16331550  0.97427700  0.50000000  1
  Ru  Ru14_4  1  0.66331550  0.47427700  0.00000000  1
  Ru  Ru14_5  1  0.66331550  0.47427700  0.50000000  1
  Ru  Ru14_6  1  0.66331550  0.97427700  0.00000000  1
  Ru  Ru14_7  1  0.66331550  0.97427700  0.50000000  1
  Ru  Ru15_0  1  0.33668450  0.02572300  0.00000000  1
  Ru  Ru15_1  1  0.33668450  0.02572300  0.50000000  1
  Ru  Ru15_2  1  0.33668450  0.52572300  0.00000000  1
  Ru  Ru15_3  1  0.33668450  0.52572300  0.50000000  1
  Ru  Ru15_4  1  0.83668450  0.02572300  0.00000000  1
  Ru  Ru15_5  1  0.83668450  0.02572300  0.50000000  1
  Ru  Ru15_6  1  0.83668450  0.52572300  0.00000000  1
  Ru  Ru15_7  1  0.83668450  0.52572300  0.50000000  1
  Ru  Ru16_0  1  0.22427700  0.41331550  0.00000000  1
  Ru  Ru16_1  1  0.22427700  0.41331550  0.50000000  1
  Ru  Ru16_2  1  0.22427700  0.91331550  0.00000000  1
  Ru  Ru16_3  1  0.22427700  0.91331550  0.50000000  1
  Ru  Ru16_4  1  0.72427700  0.41331550  0.00000000  1
  Ru  Ru16_5  1  0.72427700  0.41331550  0.50000000  1
  Ru  Ru16_6  1  0.72427700  0.91331550  0.00000000  1
  Ru  Ru16_7  1  0.72427700  0.91331550  0.50000000  1
  Ru  Ru17_0  1  0.27572300  0.08668450  0.00000000  1
  Ru  Ru17_1  1  0.27572300  0.08668450  0.50000000  1
  Ru  Ru17_2  1  0.27572300  0.58668450  0.00000000  1
  Ru  Ru17_3  1  0.27572300  0.58668450  0.50000000  1
  Ru  Ru17_4  1  0.77572300  0.08668450  0.00000000  1
  Ru  Ru17_5  1  0.77572300  0.08668450  0.50000000  1
  Ru  Ru17_6  1  0.77572300  0.58668450  0.00000000  1
  Ru  Ru17_7  1  0.77572300  0.58668450  0.50000000  1
  Ru  Ru18_0  1  0.02572300  0.16331550  0.00000000  1
  Ru  Ru18_1  1  0.02572300  0.16331550  0.50000000  1
  Ru  Ru18_2  1  0.02572300  0.66331550  0.00000000  1
  Ru  Ru18_3  1  0.02572300  0.66331550  0.50000000  1
  Ru  Ru18_4  1  0.52572300  0.16331550  0.00000000  1
  Ru  Ru18_5  1  0.52572300  0.16331550  0.50000000  1
  Ru  Ru18_6  1  0.52572300  0.66331550  0.00000000  1
  Ru  Ru18_7  1  0.52572300  0.66331550  0.50000000  1
  Ru  Ru19_0  1  0.47427700  0.33668450  0.00000000  1
  Ru  Ru19_1  1  0.47427700  0.33668450  0.50000000  1
  Ru  Ru19_2  1  0.47427700  0.83668450  0.00000000  1
  Ru  Ru19_3  1  0.47427700  0.83668450  0.50000000  1
  Ru  Ru19_4  1  0.97427700  0.33668450  0.00000000  1
  Ru  Ru19_5  1  0.97427700  0.33668450  0.50000000  1
  Ru  Ru19_6  1  0.97427700  0.83668450  0.00000000  1
  Ru  Ru19_7  1  0.97427700  0.83668450  0.50000000  1
  Ru  Ru20_0  1  0.33451100  0.14448300  0.00000000  1
  Ru  Ru20_1  1  0.33451100  0.14448300  0.50000000  1
  Ru  Ru20_2  1  0.33451100  0.64448300  0.00000000  1
  Ru  Ru20_3  1  0.33451100  0.64448300  0.50000000  1
  Ru  Ru20_4  1  0.83451100  0.14448300  0.00000000  1
  Ru  Ru20_5  1  0.83451100  0.14448300  0.50000000  1
  Ru  Ru20_6  1  0.83451100  0.64448300  0.00000000  1
  Ru  Ru20_7  1  0.83451100  0.64448300  0.50000000  1
  Ru  Ru21_0  1  0.16548900  0.35551700  0.00000000  1
  Ru  Ru21_1  1  0.16548900  0.35551700  0.50000000  1
  Ru  Ru21_2  1  0.16548900  0.85551700  0.00000000  1
  Ru  Ru21_3  1  0.16548900  0.85551700  0.50000000  1
  Ru  Ru21_4  1  0.66548900  0.35551700  0.00000000  1
  Ru  Ru21_5  1  0.66548900  0.35551700  0.50000000  1
  Ru  Ru21_6  1  0.66548900  0.85551700  0.00000000  1
  Ru  Ru21_7  1  0.66548900  0.85551700  0.50000000  1
  Ru  Ru22_0  1  0.08451100  0.10551700  0.00000000  1
  Ru  Ru22_1  1  0.08451100  0.10551700  0.50000000  1
  Ru  Ru22_2  1  0.08451100  0.60551700  0.00000000  1
  Ru  Ru22_3  1  0.08451100  0.60551700  0.50000000  1
  Ru  Ru22_4  1  0.58451100  0.10551700  0.00000000  1
  Ru  Ru22_5  1  0.58451100  0.10551700  0.50000000  1
  Ru  Ru22_6  1  0.58451100  0.60551700  0.00000000  1
  Ru  Ru22_7  1  0.58451100  0.60551700  0.50000000  1
  Ru  Ru23_0  1  0.41548900  0.39448300  0.00000000  1
  Ru  Ru23_1  1  0.41548900  0.39448300  0.50000000  1
  Ru  Ru23_2  1  0.41548900  0.89448300  0.00000000  1
  Ru  Ru23_3  1  0.41548900  0.89448300  0.50000000  1
  Ru  Ru23_4  1  0.91548900  0.39448300  0.00000000  1
  Ru  Ru23_5  1  0.91548900  0.39448300  0.50000000  1
  Ru  Ru23_6  1  0.91548900  0.89448300  0.00000000  1
  Ru  Ru23_7  1  0.91548900  0.89448300  0.50000000  1
  Ru  Ru24_0  1  0.35551700  0.33451100  0.00000000  1
  Ru  Ru24_1  1  0.35551700  0.33451100  0.50000000  1
  Ru  Ru24_2  1  0.35551700  0.83451100  0.00000000  1
  Ru  Ru24_3  1  0.35551700  0.83451100  0.50000000  1
  Ru  Ru24_4  1  0.85551700  0.33451100  0.00000000  1
  Ru  Ru24_5  1  0.85551700  0.33451100  0.50000000  1
  Ru  Ru24_6  1  0.85551700  0.83451100  0.00000000  1
  Ru  Ru24_7  1  0.85551700  0.83451100  0.50000000  1
  Ru  Ru25_0  1  0.14448300  0.16548900  0.00000000  1
  Ru  Ru25_1  1  0.14448300  0.16548900  0.50000000  1
  Ru  Ru25_2  1  0.14448300  0.66548900  0.00000000  1
  Ru  Ru25_3  1  0.14448300  0.66548900  0.50000000  1
  Ru  Ru25_4  1  0.64448300  0.16548900  0.00000000  1
  Ru  Ru25_5  1  0.64448300  0.16548900  0.50000000  1
  Ru  Ru25_6  1  0.64448300  0.66548900  0.00000000  1
  Ru  Ru25_7  1  0.64448300  0.66548900  0.50000000  1
  Ru  Ru26_0  1  0.39448300  0.08451100  0.00000000  1
  Ru  Ru26_1  1  0.39448300  0.08451100  0.50000000  1
  Ru  Ru26_2  1  0.39448300  0.58451100  0.00000000  1
  Ru  Ru26_3  1  0.39448300  0.58451100  0.50000000  1
  Ru  Ru26_4  1  0.89448300  0.08451100  0.00000000  1
  Ru  Ru26_5  1  0.89448300  0.08451100  0.50000000  1
  Ru  Ru26_6  1  0.89448300  0.58451100  0.00000000  1
  Ru  Ru26_7  1  0.89448300  0.58451100  0.50000000  1
  Ru  Ru27_0  1  0.10551700  0.41548900  0.00000000  1
  Ru  Ru27_1  1  0.10551700  0.41548900  0.50000000  1
  Ru  Ru27_2  1  0.10551700  0.91548900  0.00000000  1
  Ru  Ru27_3  1  0.10551700  0.91548900  0.50000000  1
  Ru  Ru27_4  1  0.60551700  0.41548900  0.00000000  1
  Ru  Ru27_5  1  0.60551700  0.41548900  0.50000000  1
  Ru  Ru27_6  1  0.60551700  0.91548900  0.00000000  1
  Ru  Ru27_7  1  0.60551700  0.91548900  0.50000000  1
  Ru  Ru28_0  1  0.29868750  0.21499100  0.00000000  1
  Ru  Ru28_1  1  0.29868750  0.21499100  0.50000000  1
  Ru  Ru28_2  1  0.29868750  0.71499100  0.00000000  1
  Ru  Ru28_3  1  0.29868750  0.71499100  0.50000000  1
  Ru  Ru28_4  1  0.79868750  0.21499100  0.00000000  1
  Ru  Ru28_5  1  0.79868750  0.21499100  0.50000000  1
  Ru  Ru28_6  1  0.79868750  0.71499100  0.00000000  1
  Ru  Ru28_7  1  0.79868750  0.71499100  0.50000000  1
  Ru  Ru29_0  1  0.20131250  0.28500900  0.00000000  1
  Ru  Ru29_1  1  0.20131250  0.28500900  0.50000000  1
  Ru  Ru29_2  1  0.20131250  0.78500900  0.00000000  1
  Ru  Ru29_3  1  0.20131250  0.78500900  0.50000000  1
  Ru  Ru29_4  1  0.70131250  0.28500900  0.00000000  1
  Ru  Ru29_5  1  0.70131250  0.28500900  0.50000000  1
  Ru  Ru29_6  1  0.70131250  0.78500900  0.00000000  1
  Ru  Ru29_7  1  0.70131250  0.78500900  0.50000000  1
  Ru  Ru30_0  1  0.04868750  0.03500900  0.00000000  1
  Ru  Ru30_1  1  0.04868750  0.03500900  0.50000000  1
  Ru  Ru30_2  1  0.04868750  0.53500900  0.00000000  1
  Ru  Ru30_3  1  0.04868750  0.53500900  0.50000000  1
  Ru  Ru30_4  1  0.54868750  0.03500900  0.00000000  1
  Ru  Ru30_5  1  0.54868750  0.03500900  0.50000000  1
  Ru  Ru30_6  1  0.54868750  0.53500900  0.00000000  1
  Ru  Ru30_7  1  0.54868750  0.53500900  0.50000000  1
  Ru  Ru31_0  1  0.45131250  0.46499100  0.00000000  1
  Ru  Ru31_1  1  0.45131250  0.46499100  0.50000000  1
  Ru  Ru31_2  1  0.45131250  0.96499100  0.00000000  1
  Ru  Ru31_3  1  0.45131250  0.96499100  0.50000000  1
  Ru  Ru31_4  1  0.95131250  0.46499100  0.00000000  1
  Ru  Ru31_5  1  0.95131250  0.46499100  0.50000000  1
  Ru  Ru31_6  1  0.95131250  0.96499100  0.00000000  1
  Ru  Ru31_7  1  0.95131250  0.96499100  0.50000000  1
  Ru  Ru32_0  1  0.28500900  0.29868750  0.00000000  1
  Ru  Ru32_1  1  0.28500900  0.29868750  0.50000000  1
  Ru  Ru32_2  1  0.28500900  0.79868750  0.00000000  1
  Ru  Ru32_3  1  0.28500900  0.79868750  0.50000000  1
  Ru  Ru32_4  1  0.78500900  0.29868750  0.00000000  1
  Ru  Ru32_5  1  0.78500900  0.29868750  0.50000000  1
  Ru  Ru32_6  1  0.78500900  0.79868750  0.00000000  1
  Ru  Ru32_7  1  0.78500900  0.79868750  0.50000000  1
  Ru  Ru33_0  1  0.21499100  0.20131250  0.00000000  1
  Ru  Ru33_1  1  0.21499100  0.20131250  0.50000000  1
  Ru  Ru33_2  1  0.21499100  0.70131250  0.00000000  1
  Ru  Ru33_3  1  0.21499100  0.70131250  0.50000000  1
  Ru  Ru33_4  1  0.71499100  0.20131250  0.00000000  1
  Ru  Ru33_5  1  0.71499100  0.20131250  0.50000000  1
  Ru  Ru33_6  1  0.71499100  0.70131250  0.00000000  1
  Ru  Ru33_7  1  0.71499100  0.70131250  0.50000000  1
  Ru  Ru34_0  1  0.46499100  0.04868750  0.00000000  1
  Ru  Ru34_1  1  0.46499100  0.04868750  0.50000000  1
  Ru  Ru34_2  1  0.46499100  0.54868750  0.00000000  1
  Ru  Ru34_3  1  0.46499100  0.54868750  0.50000000  1
  Ru  Ru34_4  1  0.96499100  0.04868750  0.00000000  1
  Ru  Ru34_5  1  0.96499100  0.04868750  0.50000000  1
  Ru  Ru34_6  1  0.96499100  0.54868750  0.00000000  1
  Ru  Ru34_7  1  0.96499100  0.54868750  0.50000000  1
  Ru  Ru35_0  1  0.03500900  0.45131250  0.00000000  1
  Ru  Ru35_1  1  0.03500900  0.45131250  0.50000000  1
  Ru  Ru35_2  1  0.03500900  0.95131250  0.00000000  1
  Ru  Ru35_3  1  0.03500900  0.95131250  0.50000000  1
  Ru  Ru35_4  1  0.53500900  0.45131250  0.00000000  1
  Ru  Ru35_5  1  0.53500900  0.45131250  0.50000000  1
  Ru  Ru35_6  1  0.53500900  0.95131250  0.00000000  1
  Ru  Ru35_7  1  0.53500900  0.95131250  0.50000000  1
loop_
_geom_bond_atom_site_label_1
_geom_bond_atom_site_label_2
_geom_bond_distance
_geom_bond_site_symmetry_2
Ti6_0 Ti6_1 2.994956 1_555
Ti6_0 Ti6_1 2.994956 1_554
Ti6_2 Ti6_3 2.994956 1_554
Ti6_2 Ti6_3 2.994956 1_555
Ti6_4 Ti6_5 2.994956 1_554
Ti6_4 Ti6_5 2.994956 1_555
Ti6_6 Ti6_7 2.994956 1_555
Ti6_6 Ti6_7 2.994956 1_554
Ti7_0 Ti7_1 2.994956 1_554
Ti7_0 Ti7_1 2.994956 1_555
Ti7_2 Ti7_3 2.994956 1_554
Ti7_2 Ti7_3 2.994956 1_555
Ti7_4 Ti7_5 2.994956 1_554
Ti7_4 Ti7_5 2.994956 1_555
Ti7_6 Ti7_7 2.994956 1_555
Ti7_6 Ti7_7 2.994956 1_554
Ti8_0 Ti8_1 2.994956 1_555
Ti8_0 Ti8_1 2.994956 1_554
Ti8_2 Ti8_3 2.994956 1_554
Ti8_2 Ti8_3 2.994956 1_555
Ti8_4 Ti8_5 2.994956 1_555
Ti8_4 Ti8_5 2.994956 1_554
Ti8_6 Ti8_7 2.994956 1_555
Ti8_6 Ti8_7 2.994956 1_554
Ti9_0 Ti9_1 2.994956 1_554
Ti9_0 Ti9_1 2.994956 1_555
Ti9_2 Ti9_3 2.994956 1_555
Ti9_2 Ti9_3 2.994956 1_554
Ti9_4 Ti9_5 2.994956 1_555
Ti9_4 Ti9_5 2.994956 1_554
Ti9_6 Ti9_7 2.994956 1_554
Ti9_6 Ti9_7 2.994956 1_555
Ti10_0 Ti10_1 2.994956 1_555
Ti10_0 Ti10_1 2.994956 1_554
Ti10_2 Ti10_3 2.994956 1_554
Ti10_2 Ti10_3 2.994956 1_555
Ti10_4 Ti10_5 2.994956 1_555
Ti10_4 Ti10_5 2.994956 1_554
Ti10_6 Ti10_7 2.994956 1_555
Ti10_6 Ti10_7 2.994956 1_554
Ti11_0 Ti11_1 2.994956 1_555
Ti11_0 Ti11_1 2.994956 1_554
Ti11_2 Ti11_3 2.994956 1_555
Ti11_2 Ti11_3 2.994956 1_554
Ti11_4 Ti11_5 2.994956 1_554
Ti11_4 Ti11_5 2.994956 1_555
Ti11_6 Ti11_7 2.994956 1_554
Ti11_6 Ti11_7 2.994956 1_555
Ti12_0 Ti12_1 2.994956 1_554
Ti12_0 Ti12_1 2.994956 1_555
Ti12_2 Ti12_3 2.994956 1_554
Ti12_2 Ti12_3 2.994956 1_555
Ti12_4 Ti12_5 2.994956 1_555
Ti12_4 Ti12_5 2.994956 1_554
Ti12_6 Ti12_7 2.994956 1_555
Ti12_6 Ti12_7 2.994956 1_554
Ti13_0 Ti13_1 2.994956 1_554
Ti13_0 Ti13_1 2.994956 1_555
Ti13_2 Ti13_3 2.994956 1_555
Ti13_2 Ti13_3 2.994956 1_554
Ti13_4 Ti13_5 2.994956 1_554
Ti13_4 Ti13_5 2.994956 1_555
Ti13_6 Ti13_7 2.994956 1_554
Ti13_6 Ti13_7 2.994956 1_555
Cu0_0 Cu1_4 2.453522 1_555
Cu0_0 Ru12_0 2.650272 1_555
Cu0_0 Ru12_1 2.650272 1_555
Cu0_0 Ru19_0 2.650272 1_555
Cu0_0 Ru19_1 2.650272 1_555
Cu0_0 Ru9_4 2.861480 1_555
Cu0_0 Ru9_5 2.861480 1_555
Cu0_0 Ru8_0 2.861480 1_555
Cu0_0 Ru8_1 2.861480 1_555
Cu0_0 Cu0_1 2.994956 1_554
Cu0_0 Cu0_1 2.994956 1_555
Cu0_0 Ti14_0 3.029625 1_555
Cu0_1 Cu1_5 2.453522 1_555
Cu0_1 Ru12_0 2.650272 1_556
Cu0_1 Ru12_1 2.650272 1_555
Cu0_1 Ru19_0 2.650272 1_556
Cu0_1 Ru19_1 2.650272 1_555
Cu0_1 Ru9_4 2.861480 1_556
Cu0_1 Ru9_5 2.861480 1_555
Cu0_1 Ru8_0 2.861480 1_556
Cu0_1 Ru8_1 2.861480 1_555
Cu0_1 Ti14_1 3.029625 1_555
Cu0_2 Cu1_6 2.453522 1_555
Cu0_2 Ru12_3 2.650272 1_555
Cu0_2 Ru12_2 2.650272 1_555
Cu0_2 Ru19_2 2.650272 1_555
Cu0_2 Ru19_3 2.650272 1_555
Cu0_2 Ru9_6 2.861480 1_555
Cu0_2 Ru9_7 2.861480 1_555
Cu0_2 Ru8_3 2.861480 1_555
Cu0_2 Ru8_2 2.861480 1_555
Cu0_2 Cu0_3 2.994956 1_555
Cu0_2 Cu0_3 2.994956 1_554
Cu0_2 Ti14_2 3.029625 1_555
Cu0_3 Cu1_7 2.453522 1_555
Cu0_3 Ru12_3 2.650272 1_555
Cu0_3 Ru12_2 2.650272 1_556
Cu0_3 Ru19_3 2.650272 1_555
Cu0_3 Ru19_2 2.650272 1_556
Cu0_3 Ru9_6 2.861480 1_556
Cu0_3 Ru9_7 2.861480 1_555
Cu0_3 Ru8_3 2.861480 1_555
Cu0_3 Ru8_2 2.861480 1_556
Cu0_3 Ti14_3 3.029625 1_555
Cu0_4 Cu1_0 2.453522 1_655
Cu0_4 Ru12_4 2.650272 1_555
Cu0_4 Ru12_5 2.650272 1_555
Cu0_4 Ru19_4 2.650272 1_555
Cu0_4 Ru19_5 2.650272 1_555
Cu0_4 Ru9_1 2.861480 1_655
Cu0_4 Ru9_0 2.861480 1_655
Cu0_4 Ru8_5 2.861480 1_555
Cu0_4 Ru8_4 2.861480 1_555
Cu0_4 Cu0_5 2.994956 1_555
Cu0_4 Cu0_5 2.994956 1_554
Cu0_4 Ti14_4 3.029625 1_555
Cu0_5 Cu1_1 2.453522 1_655
Cu0_5 Ru12_4 2.650272 1_556
Cu0_5 Ru12_5 2.650272 1_555
Cu0_5 Ru19_4 2.650272 1_556
Cu0_5 Ru19_5 2.650272 1_555
Cu0_5 Ru9_1 2.861480 1_655
Cu0_5 Ru9_0 2.861480 1_656
Cu0_5 Ru8_5 2.861480 1_555
Cu0_5 Ru8_4 2.861480 1_556
Cu0_5 Ti14_5 3.029625 1_555
Cu0_6 Cu1_2 2.453522 1_655
Cu0_6 Ru12_7 2.650272 1_555
Cu0_6 Ru12_6 2.650272 1_555
Cu0_6 Ru19_6 2.650272 1_555
Cu0_6 Ru19_7 2.650272 1_555
Cu0_6 Ru9_3 2.861480 1_655
Cu0_6 Ru9_2 2.861480 1_655
Cu0_6 Ru8_7 2.861480 1_555
Cu0_6 Ru8_6 2.861480 1_555
Cu0_6 Cu0_7 2.994956 1_555
Cu0_6 Cu0_7 2.994956 1_554
Cu0_6 Ti14_6 3.029625 1_555
Cu0_7 Cu1_3 2.453522 1_655
Cu0_7 Ru12_7 2.650272 1_555
Cu0_7 Ru12_6 2.650272 1_556
Cu0_7 Ru19_6 2.650272 1_556
Cu0_7 Ru19_7 2.650272 1_555
Cu0_7 Ru9_2 2.861480 1_656
Cu0_7 Ru9_3 2.861480 1_655
Cu0_7 Ru8_7 2.861480 1_555
Cu0_7 Ru8_6 2.861480 1_556
Cu0_7 Ti14_7 3.029625 1_555
Cu1_0 Ru18_0 2.650272 1_555
Cu1_0 Ru18_1 2.650272 1_555
Cu1_0 Ru13_0 2.650272 1_555
Cu1_0 Ru13_1 2.650272 1_555
Cu1_0 Ru9_0 2.861480 1_555
Cu1_0 Ru9_1 2.861480 1_555
Cu1_0 Ru8_4 2.861480 1_455
Cu1_0 Ru8_5 2.861480 1_455
Cu1_0 Cu1_1 2.994956 1_554
Cu1_0 Cu1_1 2.994956 1_555
Cu1_0 Ti15_0 3.029625 1_555
Cu1_1 Ru18_0 2.650272 1_556
Cu1_1 Ru18_1 2.650272 1_555
Cu1_1 Ru13_1 2.650272 1_555
Cu1_1 Ru13_0 2.650272 1_556
Cu1_1 Ru9_0 2.861480 1_556
Cu1_1 Ru9_1 2.861480 1_555
Cu1_1 Ru8_5 2.861480 1_455
Cu1_1 Ru8_4 2.861480 1_456
Cu1_1 Ti15_1 3.029625 1_555
Cu1_2 Ru18_2 2.650272 1_555
Cu1_2 Ru18_3 2.650272 1_555
Cu1_2 Ru13_2 2.650272 1_555
Cu1_2 Ru13_3 2.650272 1_555
Cu1_2 Ru9_2 2.861480 1_555
Cu1_2 Ru9_3 2.861480 1_555
Cu1_2 Ru8_6 2.861480 1_455
Cu1_2 Ru8_7 2.861480 1_455
Cu1_2 Cu1_3 2.994956 1_555
Cu1_2 Cu1_3 2.994956 1_554
Cu1_2 Ti15_2 3.029625 1_555
Cu1_3 Ru18_2 2.650272 1_556
Cu1_3 Ru18_3 2.650272 1_555
Cu1_3 Ru13_2 2.650272 1_556
Cu1_3 Ru13_3 2.650272 1_555
Cu1_3 Ru9_2 2.861480 1_556
Cu1_3 Ru9_3 2.861480 1_555
Cu1_3 Ru8_6 2.861480 1_456
Cu1_3 Ru8_7 2.861480 1_455
Cu1_3 Ti15_3 3.029625 1_555
Cu1_4 Ru18_4 2.650272 1_555
Cu1_4 Ru18_5 2.650272 1_555
Cu1_4 Ru13_5 2.650272 1_555
Cu1_4 Ru13_4 2.650272 1_555
Cu1_4 Ru9_5 2.861480 1_555
Cu1_4 Ru9_4 2.861480 1_555
Cu1_4 Ru8_0 2.861480 1_555
Cu1_4 Ru8_1 2.861480 1_555
Cu1_4 Cu1_5 2.994956 1_554
Cu1_4 Cu1_5 2.994956 1_555
Cu1_4 Ti15_4 3.029625 1_555
Cu1_5 Ru18_4 2.650272 1_556
Cu1_5 Ru18_5 2.650272 1_555
Cu1_5 Ru13_4 2.650272 1_556
Cu1_5 Ru13_5 2.650272 1_555
Cu1_5 Ru9_5 2.861480 1_555
Cu1_5 Ru9_4 2.861480 1_556
Cu1_5 Ru8_1 2.861480 1_555
Cu1_5 Ru8_0 2.861480 1_556
Cu1_5 Ti15_5 3.029625 1_555
Cu1_6 Ru18_6 2.650272 1_555
Cu1_6 Ru18_7 2.650272 1_555
Cu1_6 Ru13_6 2.650272 1_555
Cu1_6 Ru13_7 2.650272 1_555
Cu1_6 Ru9_6 2.861480 1_555
Cu1_6 Ru9_7 2.861480 1_555
Cu1_6 Ru8_3 2.861480 1_555
Cu1_6 Ru8_2 2.861480 1_555
Cu1_6 Cu1_7 2.994956 1_555
Cu1_6 Cu1_7 2.994956 1_554
Cu1_6 Ti15_6 3.029625 1_555
Cu1_7 Ru18_6 2.650272 1_556
Cu1_7 Ru18_7 2.650272 1_555
Cu1_7 Ru13_6 2.650272 1_556
Cu1_7 Ru13_7 2.650272 1_555
Cu1_7 Ru9_6 2.861480 1_556
Cu1_7 Ru9_7 2.861480 1_555
Cu1_7 Ru8_2 2.861480 1_556
Cu1_7 Ru8_3 2.861480 1_555
Cu1_7 Ti15_7 3.029625 1_555
Cu2_0 Cu3_2 2.453522 1_555
Cu2_0 Ru14_1 2.650272 1_555
Cu2_0 Ru14_0 2.650272 1_555
Cu2_0 Ru16_1 2.650272 1_555
Cu2_0 Ru16_0 2.650272 1_555
Cu2_0 Ru10_2 2.861480 1_555
Cu2_0 Ru10_3 2.861480 1_555
Cu2_0 Ru11_1 2.861480 1_555
Cu2_0 Ru11_0 2.861480 1_555
Cu2_0 Cu2_1 2.994956 1_555
Cu2_0 Cu2_1 2.994956 1_554
Cu2_0 Ti16_0 3.029625 1_555
Cu2_1 Cu3_3 2.453522 1_555
Cu2_1 Ru14_0 2.650272 1_556
Cu2_1 Ru14_1 2.650272 1_555
Cu2_1 Ru16_0 2.650272 1_556
Cu2_1 Ru16_1 2.650272 1_555
Cu2_1 Ru10_2 2.861480 1_556
Cu2_1 Ru10_3 2.861480 1_555
Cu2_1 Ru11_0 2.861480 1_556
Cu2_1 Ru11_1 2.861480 1_555
Cu2_1 Ti16_1 3.029625 1_555
Cu2_2 Cu3_0 2.453522 1_565
Cu2_2 Ru14_2 2.650272 1_555
Cu2_2 Ru14_3 2.650272 1_555
Cu2_2 Ru16_2 2.650272 1_555
Cu2_2 Ru16_3 2.650272 1_555
Cu2_2 Ru10_1 2.861480 1_565
Cu2_2 Ru10_0 2.861480 1_565
Cu2_2 Ru11_2 2.861480 1_555
Cu2_2 Ru11_3 2.861480 1_555
Cu2_2 Cu2_3 2.994956 1_555
Cu2_2 Cu2_3 2.994956 1_554
Cu2_2 Ti16_2 3.029625 1_555
Cu2_3 Cu3_1 2.453522 1_565
Cu2_3 Ru14_2 2.650272 1_556
Cu2_3 Ru14_3 2.650272 1_555
Cu2_3 Ru16_2 2.650272 1_556
Cu2_3 Ru16_3 2.650272 1_555
Cu2_3 Ru10_0 2.861480 1_566
Cu2_3 Ru10_1 2.861480 1_565
Cu2_3 Ru11_2 2.861480 1_556
Cu2_3 Ru11_3 2.861480 1_555
Cu2_3 Ti16_3 3.029625 1_555
Cu2_4 Cu3_6 2.453522 1_555
Cu2_4 Ru14_5 2.650272 1_555
Cu2_4 Ru14_4 2.650272 1_555
Cu2_4 Ru16_5 2.650272 1_555
Cu2_4 Ru16_4 2.650272 1_555
Cu2_4 Ru10_6 2.861480 1_555
Cu2_4 Ru10_7 2.861480 1_555
Cu2_4 Ru11_4 2.861480 1_555
Cu2_4 Ru11_5 2.861480 1_555
Cu2_4 Cu2_5 2.994956 1_555
Cu2_4 Cu2_5 2.994956 1_554
Cu2_4 Ti16_4 3.029625 1_555
Cu2_5 Cu3_7 2.453522 1_555
Cu2_5 Ru14_5 2.650272 1_555
Cu2_5 Ru14_4 2.650272 1_556
Cu2_5 Ru16_5 2.650272 1_555
Cu2_5 Ru16_4 2.650272 1_556
Cu2_5 Ru10_7 2.861480 1_555
Cu2_5 Ru10_6 2.861480 1_556
Cu2_5 Ru11_4 2.861480 1_556
Cu2_5 Ru11_5 2.861480 1_555
Cu2_5 Ti16_5 3.029625 1_555
Cu2_6 Cu3_4 2.453522 1_565
Cu2_6 Ru14_7 2.650272 1_555
Cu2_6 Ru14_6 2.650272 1_555
Cu2_6 Ru16_7 2.650272 1_555
Cu2_6 Ru16_6 2.650272 1_555
Cu2_6 Ru10_4 2.861480 1_565
Cu2_6 Ru10_5 2.861480 1_565
Cu2_6 Ru11_7 2.861480 1_555
Cu2_6 Ru11_6 2.861480 1_555
Cu2_6 Cu2_7 2.994956 1_554
Cu2_6 Cu2_7 2.994956 1_555
Cu2_6 Ti16_6 3.029625 1_555
Cu2_7 Cu3_5 2.453522 1_565
Cu2_7 Ru14_7 2.650272 1_555
Cu2_7 Ru14_6 2.650272 1_556
Cu2_7 Ru16_7 2.650272 1_555
Cu2_7 Ru16_6 2.650272 1_556
Cu2_7 Ru10_5 2.861480 1_565
Cu2_7 Ru10_4 2.861480 1_566
Cu2_7 Ru11_7 2.861480 1_555
Cu2_7 Ru11_6 2.861480 1_556
Cu2_7 Ti16_7 3.029625 1_555
Cu3_0 Ru17_1 2.650272 1_555
Cu3_0 Ru17_0 2.650272 1_555
Cu3_0 Ru15_1 2.650272 1_555
Cu3_0 Ru15_0 2.650272 1_555
Cu3_0 Ru10_1 2.861480 1_555
Cu3_0 Ru10_0 2.861480 1_555
Cu3_0 Ru11_2 2.861480 1_545
Cu3_0 Ru11_3 2.861480 1_545
Cu3_0 Cu3_1 2.994956 1_554
Cu3_0 Cu3_1 2.994956 1_555
Cu3_0 Ti17_0 3.029625 1_555
Cu3_1 Ru17_1 2.650272 1_555
Cu3_1 Ru17_0 2.650272 1_556
Cu3_1 Ru15_1 2.650272 1_555
Cu3_1 Ru15_0 2.650272 1_556
Cu3_1 Ru10_0 2.861480 1_556
Cu3_1 Ru10_1 2.861480 1_555
Cu3_1 Ru11_3 2.861480 1_545
Cu3_1 Ru11_2 2.861480 1_546
Cu3_1 Ti17_1 3.029625 1_555
Cu3_2 Ru17_2 2.650272 1_555
Cu3_2 Ru17_3 2.650272 1_555
Cu3_2 Ru15_2 2.650272 1_555
Cu3_2 Ru15_3 2.650272 1_555
Cu3_2 Ru10_3 2.861480 1_555
Cu3_2 Ru10_2 2.861480 1_555
Cu3_2 Ru11_1 2.861480 1_555
Cu3_2 Ru11_0 2.861480 1_555
Cu3_2 Cu3_3 2.994956 1_555
Cu3_2 Cu3_3 2.994956 1_554
Cu3_2 Ti17_2 3.029625 1_555
Cu3_3 Ru17_2 2.650272 1_556
Cu3_3 Ru17_3 2.650272 1_555
Cu3_3 Ru15_2 2.650272 1_556
Cu3_3 Ru15_3 2.650272 1_555
Cu3_3 Ru10_2 2.861480 1_556
Cu3_3 Ru10_3 2.861480 1_555
Cu3_3 Ru11_1 2.861480 1_555
Cu3_3 Ru11_0 2.861480 1_556
Cu3_3 Ti17_3 3.029625 1_555
Cu3_4 Ru17_4 2.650272 1_555
Cu3_4 Ru17_5 2.650272 1_555
Cu3_4 Ru15_4 2.650272 1_555
Cu3_4 Ru15_5 2.650272 1_555
Cu3_4 Ru10_5 2.861480 1_555
Cu3_4 Ru10_4 2.861480 1_555
Cu3_4 Ru11_6 2.861480 1_545
Cu3_4 Ru11_7 2.861480 1_545
Cu3_4 Cu3_5 2.994956 1_555
Cu3_4 Cu3_5 2.994956 1_554
Cu3_4 Ti17_4 3.029625 1_555
Cu3_5 Ru17_4 2.650272 1_556
Cu3_5 Ru17_5 2.650272 1_555
Cu3_5 Ru15_4 2.650272 1_556
Cu3_5 Ru15_5 2.650272 1_555
Cu3_5 Ru10_5 2.861480 1_555
Cu3_5 Ru10_4 2.861480 1_556
Cu3_5 Ru11_6 2.861480 1_546
Cu3_5 Ru11_7 2.861480 1_545
Cu3_5 Ti17_5 3.029625 1_555
Cu3_6 Ru17_6 2.650272 1_555
Cu3_6 Ru17_7 2.650272 1_555
Cu3_6 Ru15_7 2.650272 1_555
Cu3_6 Ru15_6 2.650272 1_555
Cu3_6 Ru10_7 2.861480 1_555
Cu3_6 Ru10_6 2.861480 1_555
Cu3_6 Ru11_4 2.861480 1_555
Cu3_6 Ru11_5 2.861480 1_555
Cu3_6 Cu3_7 2.994956 1_554
Cu3_6 Cu3_7 2.994956 1_555
Cu3_6 Ti17_6 3.029625 1_555
Cu3_7 Ru17_6 2.650272 1_556
Cu3_7 Ru17_7 2.650272 1_555
Cu3_7 Ru15_7 2.650272 1_555
Cu3_7 Ru15_6 2.650272 1_556
Cu3_7 Ru10_7 2.861480 1_555
Cu3_7 Ru10_6 2.861480 1_556
Cu3_7 Ru11_4 2.861480 1_556
Cu3_7 Ru11_5 2.861480 1_555
Cu3_7 Ti17_7 3.029625 1_555
B0_0 Ru28_0 2.162428 1_555
B0_0 Ru28_1 2.162428 1_555
B0_0 Ru20_0 2.175563 1_555
B0_0 Ru20_1 2.175563 1_555
B0_0 Ru0_0 2.221211 1_555
B0_0 Ru0_1 2.221211 1_555
B0_0 Ti11_0 2.642583 1_555
B0_0 Ti0_0 2.709887 1_555
B0_0 Ti6_0 2.775158 1_555
B0_1 Ru28_1 2.162428 1_555
B0_1 Ru28_0 2.162428 1_556
B0_1 Ru20_0 2.175563 1_556
B0_1 Ru20_1 2.175563 1_555
B0_1 Ru0_0 2.221211 1_556
B0_1 Ru0_1 2.221211 1_555
B0_1 Ti11_1 2.642583 1_555
B0_1 Ti0_1 2.709887 1_555
B0_1 Ti6_1 2.775158 1_555
B0_2 Ru28_2 2.162428 1_555
B0_2 Ru28_3 2.162428 1_555
B0_2 Ru20_3 2.175563 1_555
B0_2 Ru20_2 2.175563 1_555
B0_2 Ru0_2 2.221211 1_555
B0_2 Ru0_3 2.221211 1_555
B0_2 Ti11_2 2.642583 1_555
B0_2 Ti0_2 2.709887 1_555
B0_2 Ti6_2 2.775158 1_555
B0_3 Ru28_2 2.162428 1_556
B0_3 Ru28_3 2.162428 1_555
B0_3 Ru20_3 2.175563 1_555
B0_3 Ru20_2 2.175563 1_556
B0_3 Ru0_3 2.221211 1_555
B0_3 Ru0_2 2.221211 1_556
B0_3 Ti11_3 2.642583 1_555
B0_3 Ti0_3 2.709887 1_555
B0_3 Ti6_3 2.775158 1_555
B0_4 Ru28_4 2.162428 1_555
B0_4 Ru28_5 2.162428 1_555
B0_4 Ru20_4 2.175563 1_555
B0_4 Ru20_5 2.175563 1_555
B0_4 Ru0_4 2.221211 1_555
B0_4 Ru0_5 2.221211 1_555
B0_4 Ti11_4 2.642583 1_555
B0_4 Ti0_4 2.709887 1_555
B0_4 Ti6_4 2.775158 1_555
B0_5 Ru28_4 2.162428 1_556
B0_5 Ru28_5 2.162428 1_555
B0_5 Ru20_4 2.175563 1_556
B0_5 Ru20_5 2.175563 1_555
B0_5 Ru0_4 2.221211 1_556
B0_5 Ru0_5 2.221211 1_555
B0_5 Ti11_5 2.642583 1_555
B0_5 Ti0_5 2.709887 1_555
B0_5 Ti6_5 2.775158 1_555
B0_6 Ru28_6 2.162428 1_555
B0_6 Ru28_7 2.162428 1_555
B0_6 Ru20_7 2.175563 1_555
B0_6 Ru20_6 2.175563 1_555
B0_6 Ru0_7 2.221211 1_555
B0_6 Ru0_6 2.221211 1_555
B0_6 Ti11_6 2.642583 1_555
B0_6 Ti0_6 2.709887 1_555
B0_6 Ti6_6 2.775158 1_555
B0_7 Ru28_6 2.162428 1_556
B0_7 Ru28_7 2.162428 1_555
B0_7 Ru20_7 2.175563 1_555
B0_7 Ru20_6 2.175563 1_556
B0_7 Ru0_7 2.221211 1_555
B0_7 Ru0_6 2.221211 1_556
B0_7 Ti11_7 2.642583 1_555
B0_7 Ti0_7 2.709887 1_555
B0_7 Ti6_7 2.775158 1_555
B1_0 Ru29_1 2.162428 1_555
B1_0 Ru29_0 2.162428 1_555
B1_0 Ru21_1 2.175563 1_555
B1_0 Ru21_0 2.175563 1_555
B1_0 Ru1_0 2.221211 1_555
B1_0 Ru1_1 2.221211 1_555
B1_0 Ti10_0 2.642583 1_555
B1_0 Ti1_0 2.709887 1_555
B1_0 Ti7_0 2.775158 1_555
B1_1 Ru29_1 2.162428 1_555
B1_1 Ru29_0 2.162428 1_556
B1_1 Ru21_1 2.175563 1_555
B1_1 Ru21_0 2.175563 1_556
B1_1 Ru1_1 2.221211 1_555
B1_1 Ru1_0 2.221211 1_556
B1_1 Ti10_1 2.642583 1_555
B1_1 Ti1_1 2.709887 1_555
B1_1 Ti7_1 2.775158 1_555
B1_2 Ru29_2 2.162428 1_555
B1_2 Ru29_3 2.162428 1_555
B1_2 Ru21_2 2.175563 1_555
B1_2 Ru21_3 2.175563 1_555
B1_2 Ru1_2 2.221211 1_555
B1_2 Ru1_3 2.221211 1_555
B1_2 Ti10_2 2.642583 1_555
B1_2 Ti1_2 2.709887 1_555
B1_2 Ti7_2 2.775158 1_555
B1_3 Ru29_2 2.162428 1_556
B1_3 Ru29_3 2.162428 1_555
B1_3 Ru21_2 2.175563 1_556
B1_3 Ru21_3 2.175563 1_555
B1_3 Ru1_3 2.221211 1_555
B1_3 Ru1_2 2.221211 1_556
B1_3 Ti10_3 2.642583 1_555
B1_3 Ti1_3 2.709887 1_555
B1_3 Ti7_3 2.775158 1_555
B1_4 Ru29_4 2.162428 1_555
B1_4 Ru29_5 2.162428 1_555
B1_4 Ru21_5 2.175563 1_555
B1_4 Ru21_4 2.175563 1_555
B1_4 Ru1_4 2.221211 1_555
B1_4 Ru1_5 2.221211 1_555
B1_4 Ti10_4 2.642583 1_555
B1_4 Ti1_4 2.709887 1_555
B1_4 Ti7_4 2.775158 1_555
B1_5 Ru29_4 2.162428 1_556
B1_5 Ru29_5 2.162428 1_555
B1_5 Ru21_4 2.175563 1_556
B1_5 Ru21_5 2.175563 1_555
B1_5 Ru1_5 2.221211 1_555
B1_5 Ru1_4 2.221211 1_556
B1_5 Ti10_5 2.642583 1_555
B1_5 Ti1_5 2.709887 1_555
B1_5 Ti7_5 2.775158 1_555
B1_6 Ru29_7 2.162428 1_555
B1_6 Ru29_6 2.162428 1_555
B1_6 Ru21_6 2.175563 1_555
B1_6 Ru21_7 2.175563 1_555
B1_6 Ru1_7 2.221211 1_555
B1_6 Ru1_6 2.221211 1_555
B1_6 Ti10_6 2.642583 1_555
B1_6 Ti1_6 2.709887 1_555
B1_6 Ti7_6 2.775158 1_555
B1_7 Ru29_7 2.162428 1_555
B1_7 Ru29_6 2.162428 1_556
B1_7 Ru21_6 2.175563 1_556
B1_7 Ru21_7 2.175563 1_555
B1_7 Ru1_6 2.221211 1_556
B1_7 Ru1_7 2.221211 1_555
B1_7 Ti10_7 2.642583 1_555
B1_7 Ti1_7 2.709887 1_555
B1_7 Ti7_7 2.775158 1_555
B2_0 Ru30_1 2.162428 1_555
B2_0 Ru30_0 2.162428 1_555
B2_0 Ru22_1 2.175563 1_555
B2_0 Ru22_0 2.175563 1_555
B2_0 Ru2_0 2.221211 1_555
B2_0 Ru2_1 2.221211 1_555
B2_0 Ti12_0 2.642583 1_555
B2_0 Ti2_0 2.709887 1_555
B2_0 Ti8_2 2.775158 1_545
B2_1 Ru30_0 2.162428 1_556
B2_1 Ru30_1 2.162428 1_555
B2_1 Ru22_1 2.175563 1_555
B2_1 Ru22_0 2.175563 1_556
B2_1 Ru2_1 2.221211 1_555
B2_1 Ru2_0 2.221211 1_556
B2_1 Ti12_1 2.642583 1_555
B2_1 Ti2_1 2.709887 1_555
B2_1 Ti8_3 2.775158 1_545
B2_2 Ru30_2 2.162428 1_555
B2_2 Ru30_3 2.162428 1_555
B2_2 Ru22_2 2.175563 1_555
B2_2 Ru22_3 2.175563 1_555
B2_2 Ru2_2 2.221211 1_555
B2_2 Ru2_3 2.221211 1_555
B2_2 Ti12_2 2.642583 1_555
B2_2 Ti2_2 2.709887 1_555
B2_2 Ti8_0 2.775158 1_555
B2_3 Ru30_3 2.162428 1_555
B2_3 Ru30_2 2.162428 1_556
B2_3 Ru22_2 2.175563 1_556
B2_3 Ru22_3 2.175563 1_555
B2_3 Ru2_3 2.221211 1_555
B2_3 Ru2_2 2.221211 1_556
B2_3 Ti12_3 2.642583 1_555
B2_3 Ti2_3 2.709887 1_555
B2_3 Ti8_1 2.775158 1_555
B2_4 Ru30_4 2.162428 1_555
B2_4 Ru30_5 2.162428 1_555
B2_4 Ru22_4 2.175563 1_555
B2_4 Ru22_5 2.175563 1_555
B2_4 Ru2_4 2.221211 1_555
B2_4 Ru2_5 2.221211 1_555
B2_4 Ti12_4 2.642583 1_555
B2_4 Ti2_4 2.709887 1_555
B2_4 Ti8_6 2.775158 1_545
B2_5 Ru30_4 2.162428 1_556
B2_5 Ru30_5 2.162428 1_555
B2_5 Ru22_4 2.175563 1_556
B2_5 Ru22_5 2.175563 1_555
B2_5 Ru2_4 2.221211 1_556
B2_5 Ru2_5 2.221211 1_555
B2_5 Ti12_5 2.642583 1_555
B2_5 Ti2_5 2.709887 1_555
B2_5 Ti8_7 2.775158 1_545
B2_6 Ru30_7 2.162428 1_555
B2_6 Ru30_6 2.162428 1_555
B2_6 Ru22_6 2.175563 1_555
B2_6 Ru22_7 2.175563 1_555
B2_6 Ru2_6 2.221211 1_555
B2_6 Ru2_7 2.221211 1_555
B2_6 Ti12_6 2.642583 1_555
B2_6 Ti2_6 2.709887 1_555
B2_6 Ti8_4 2.775158 1_555
B2_7 Ru30_6 2.162428 1_556
B2_7 Ru30_7 2.162428 1_555
B2_7 Ru22_6 2.175563 1_556
B2_7 Ru22_7 2.175563 1_555
B2_7 Ru2_7 2.221211 1_555
B2_7 Ru2_6 2.221211 1_556
B2_7 Ti12_7 2.642583 1_555
B2_7 Ti2_7 2.709887 1_555
B2_7 Ti8_5 2.775158 1_555
B3_0 Ru31_0 2.162428 1_555
B3_0 Ru31_1 2.162428 1_555
B3_0 Ru23_1 2.175563 1_555
B3_0 Ru23_0 2.175563 1_555
B3_0 Ru3_0 2.221211 1_555
B3_0 Ru3_1 2.221211 1_555
B3_0 Ti13_0 2.642583 1_555
B3_0 Ti3_0 2.709887 1_555
B3_0 Ti9_2 2.775158 1_555
B3_1 Ru31_0 2.162428 1_556
B3_1 Ru31_1 2.162428 1_555
B3_1 Ru23_1 2.175563 1_555
B3_1 Ru23_0 2.175563 1_556
B3_1 Ru3_1 2.221211 1_555
B3_1 Ru3_0 2.221211 1_556
B3_1 Ti13_1 2.642583 1_555
B3_1 Ti3_1 2.709887 1_555
B3_1 Ti9_3 2.775158 1_555
B3_2 Ru31_2 2.162428 1_555
B3_2 Ru31_3 2.162428 1_555
B3_2 Ru23_2 2.175563 1_555
B3_2 Ru23_3 2.175563 1_555
B3_2 Ru3_2 2.221211 1_555
B3_2 Ru3_3 2.221211 1_555
B3_2 Ti13_2 2.642583 1_555
B3_2 Ti3_2 2.709887 1_555
B3_2 Ti9_0 2.775158 1_565
B3_3 Ru31_3 2.162428 1_555
B3_3 Ru31_2 2.162428 1_556
B3_3 Ru23_2 2.175563 1_556
B3_3 Ru23_3 2.175563 1_555
B3_3 Ru3_3 2.221211 1_555
B3_3 Ru3_2 2.221211 1_556
B3_3 Ti13_3 2.642583 1_555
B3_3 Ti3_3 2.709887 1_555
B3_3 Ti9_1 2.775158 1_565
B3_4 Ru31_4 2.162428 1_555
B3_4 Ru31_5 2.162428 1_555
B3_4 Ru23_5 2.175563 1_555
B3_4 Ru23_4 2.175563 1_555
B3_4 Ru3_5 2.221211 1_555
B3_4 Ru3_4 2.221211 1_555
B3_4 Ti13_4 2.642583 1_555
B3_4 Ti3_4 2.709887 1_555
B3_4 Ti9_6 2.775158 1_555
B3_5 Ru31_4 2.162428 1_556
B3_5 Ru31_5 2.162428 1_555
B3_5 Ru23_5 2.175563 1_555
B3_5 Ru23_4 2.175563 1_556
B3_5 Ru3_5 2.221211 1_555
B3_5 Ru3_4 2.221211 1_556
B3_5 Ti13_5 2.642583 1_555
B3_5 Ti3_5 2.709887 1_555
B3_5 Ti9_7 2.775158 1_555
B3_6 Ru31_7 2.162428 1_555
B3_6 Ru31_6 2.162428 1_555
B3_6 Ru23_6 2.175563 1_555
B3_6 Ru23_7 2.175563 1_555
B3_6 Ru3_6 2.221211 1_555
B3_6 Ru3_7 2.221211 1_555
B3_6 Ti13_6 2.642583 1_555
B3_6 Ti3_6 2.709887 1_555
B3_6 Ti9_4 2.775158 1_565
B3_7 Ru31_7 2.162428 1_555
B3_7 Ru31_6 2.162428 1_556
B3_7 Ru23_6 2.175563 1_556
B3_7 Ru23_7 2.175563 1_555
B3_7 Ru3_6 2.221211 1_556
B3_7 Ru3_7 2.221211 1_555
B3_7 Ti13_7 2.642583 1_555
B3_7 Ti3_7 2.709887 1_555
B3_7 Ti9_5 2.775158 1_565
B4_0 Ru32_1 2.162428 1_555
B4_0 Ru32_0 2.162428 1_555
B4_0 Ru24_0 2.175563 1_555
B4_0 Ru24_1 2.175563 1_555
B4_0 Ru4_0 2.221211 1_555
B4_0 Ru4_1 2.221211 1_555
B4_0 Ti6_0 2.642583 1_555
B4_0 Ti3_0 2.709887 1_555
B4_0 Ti10_0 2.775158 1_555
B4_1 Ru32_1 2.162428 1_555
B4_1 Ru32_0 2.162428 1_556
B4_1 Ru24_0 2.175563 1_556
B4_1 Ru24_1 2.175563 1_555
B4_1 Ru4_1 2.221211 1_555
B4_1 Ru4_0 2.221211 1_556
B4_1 Ti6_1 2.642583 1_555
B4_1 Ti3_1 2.709887 1_555
B4_1 Ti10_1 2.775158 1_555
B4_2 Ru32_2 2.162428 1_555
B4_2 Ru32_3 2.162428 1_555
B4_2 Ru24_3 2.175563 1_555
B4_2 Ru24_2 2.175563 1_555
B4_2 Ru4_2 2.221211 1_555
B4_2 Ru4_3 2.221211 1_555
B4_2 Ti6_2 2.642583 1_555
B4_2 Ti3_2 2.709887 1_555
B4_2 Ti10_2 2.775158 1_555
B4_3 Ru32_2 2.162428 1_556
B4_3 Ru32_3 2.162428 1_555
B4_3 Ru24_3 2.175563 1_555
B4_3 Ru24_2 2.175563 1_556
B4_3 Ru4_2 2.221211 1_556
B4_3 Ru4_3 2.221211 1_555
B4_3 Ti6_3 2.642583 1_555
B4_3 Ti3_3 2.709887 1_555
B4_3 Ti10_3 2.775158 1_555
B4_4 Ru32_5 2.162428 1_555
B4_4 Ru32_4 2.162428 1_555
B4_4 Ru24_4 2.175563 1_555
B4_4 Ru24_5 2.175563 1_555
B4_4 Ru4_4 2.221211 1_555
B4_4 Ru4_5 2.221211 1_555
B4_4 Ti6_4 2.642583 1_555
B4_4 Ti3_4 2.709887 1_555
B4_4 Ti10_4 2.775158 1_555
B4_5 Ru32_5 2.162428 1_555
B4_5 Ru32_4 2.162428 1_556
B4_5 Ru24_4 2.175563 1_556
B4_5 Ru24_5 2.175563 1_555
B4_5 Ru4_5 2.221211 1_555
B4_5 Ru4_4 2.221211 1_556
B4_5 Ti6_5 2.642583 1_555
B4_5 Ti3_5 2.709887 1_555
B4_5 Ti10_5 2.775158 1_555
B4_6 Ru32_6 2.162428 1_555
B4_6 Ru32_7 2.162428 1_555
B4_6 Ru24_6 2.175563 1_555
B4_6 Ru24_7 2.175563 1_555
B4_6 Ru4_6 2.221211 1_555
B4_6 Ru4_7 2.221211 1_555
B4_6 Ti6_6 2.642583 1_555
B4_6 Ti3_6 2.709887 1_555
B4_6 Ti10_6 2.775158 1_555
B4_7 Ru32_7 2.162428 1_555
B4_7 Ru32_6 2.162428 1_556
B4_7 Ru24_6 2.175563 1_556
B4_7 Ru24_7 2.175563 1_555
B4_7 Ru4_6 2.221211 1_556
B4_7 Ru4_7 2.221211 1_555
B4_7 Ti6_7 2.642583 1_555
B4_7 Ti3_7 2.709887 1_555
B4_7 Ti10_7 2.775158 1_555
B5_0 Ru33_0 2.162428 1_555
B5_0 Ru33_1 2.162428 1_555
B5_0 Ru25_1 2.175563 1_555
B5_0 Ru25_0 2.175563 1_555
B5_0 Ru5_1 2.221211 1_555
B5_0 Ru5_0 2.221211 1_555
B5_0 Ti7_0 2.642583 1_555
B5_0 Ti2_0 2.709887 1_555
B5_0 Ti11_0 2.775158 1_555
B5_1 Ru33_0 2.162428 1_556
B5_1 Ru33_1 2.162428 1_555
B5_1 Ru25_0 2.175563 1_556
B5_1 Ru25_1 2.175563 1_555
B5_1 Ru5_0 2.221211 1_556
B5_1 Ru5_1 2.221211 1_555
B5_1 Ti7_1 2.642583 1_555
B5_1 Ti2_1 2.709887 1_555
B5_1 Ti11_1 2.775158 1_555
B5_2 Ru33_2 2.162428 1_555
B5_2 Ru33_3 2.162428 1_555
B5_2 Ru25_2 2.175563 1_555
B5_2 Ru25_3 2.175563 1_555
B5_2 Ru5_2 2.221211 1_555
B5_2 Ru5_3 2.221211 1_555
B5_2 Ti7_2 2.642583 1_555
B5_2 Ti2_2 2.709887 1_555
B5_2 Ti11_2 2.775158 1_555
B5_3 Ru33_2 2.162428 1_556
B5_3 Ru33_3 2.162428 1_555
B5_3 Ru25_2 2.175563 1_556
B5_3 Ru25_3 2.175563 1_555
B5_3 Ru5_2 2.221211 1_556
B5_3 Ru5_3 2.221211 1_555
B5_3 Ti7_3 2.642583 1_555
B5_3 Ti2_3 2.709887 1_555
B5_3 Ti11_3 2.775158 1_555
B5_4 Ru33_4 2.162428 1_555
B5_4 Ru33_5 2.162428 1_555
B5_4 Ru25_5 2.175563 1_555
B5_4 Ru25_4 2.175563 1_555
B5_4 Ru5_5 2.221211 1_555
B5_4 Ru5_4 2.221211 1_555
B5_4 Ti7_4 2.642583 1_555
B5_4 Ti2_4 2.709887 1_555
B5_4 Ti11_4 2.775158 1_555
B5_5 Ru33_5 2.162428 1_555
B5_5 Ru33_4 2.162428 1_556
B5_5 Ru25_5 2.175563 1_555
B5_5 Ru25_4 2.175563 1_556
B5_5 Ru5_5 2.221211 1_555
B5_5 Ru5_4 2.221211 1_556
B5_5 Ti7_5 2.642583 1_555
B5_5 Ti2_5 2.709887 1_555
B5_5 Ti11_5 2.775158 1_555
B5_6 Ru33_7 2.162428 1_555
B5_6 Ru33_6 2.162428 1_555
B5_6 Ru25_7 2.175563 1_555
B5_6 Ru25_6 2.175563 1_555
B5_6 Ru5_6 2.221211 1_555
B5_6 Ru5_7 2.221211 1_555
B5_6 Ti7_6 2.642583 1_555
B5_6 Ti2_6 2.709887 1_555
B5_6 Ti11_6 2.775158 1_555
B5_7 Ru33_7 2.162428 1_555
B5_7 Ru33_6 2.162428 1_556
B5_7 Ru25_7 2.175563 1_555
B5_7 Ru25_6 2.175563 1_556
B5_7 Ru5_6 2.221211 1_556
B5_7 Ru5_7 2.221211 1_555
B5_7 Ti7_7 2.642583 1_555
B5_7 Ti2_7 2.709887 1_555
B5_7 Ti11_7 2.775158 1_555
B6_0 Ru34_0 2.162428 1_555
B6_0 Ru34_1 2.162428 1_555
B6_0 Ru26_0 2.175563 1_555
B6_0 Ru26_1 2.175563 1_555
B6_0 Ru6_1 2.221211 1_555
B6_0 Ru6_0 2.221211 1_555
B6_0 Ti9_0 2.642583 1_555
B6_0 Ti0_0 2.709887 1_555
B6_0 Ti12_4 2.775158 1_555
B6_1 Ru34_0 2.162428 1_556
B6_1 Ru34_1 2.162428 1_555
B6_1 Ru26_0 2.175563 1_556
B6_1 Ru26_1 2.175563 1_555
B6_1 Ru6_1 2.221211 1_555
B6_1 Ru6_0 2.221211 1_556
B6_1 Ti9_1 2.642583 1_555
B6_1 Ti0_1 2.709887 1_555
B6_1 Ti12_5 2.775158 1_555
B6_2 Ru34_3 2.162428 1_555
B6_2 Ru34_2 2.162428 1_555
B6_2 Ru26_3 2.175563 1_555
B6_2 Ru26_2 2.175563 1_555
B6_2 Ru6_2 2.221211 1_555
B6_2 Ru6_3 2.221211 1_555
B6_2 Ti9_2 2.642583 1_555
B6_2 Ti0_2 2.709887 1_555
B6_2 Ti12_6 2.775158 1_555
B6_3 Ru34_3 2.162428 1_555
B6_3 Ru34_2 2.162428 1_556
B6_3 Ru26_2 2.175563 1_556
B6_3 Ru26_3 2.175563 1_555
B6_3 Ru6_2 2.221211 1_556
B6_3 Ru6_3 2.221211 1_555
B6_3 Ti9_3 2.642583 1_555
B6_3 Ti0_3 2.709887 1_555
B6_3 Ti12_7 2.775158 1_555
B6_4 Ru34_4 2.162428 1_555
B6_4 Ru34_5 2.162428 1_555
B6_4 Ru26_4 2.175563 1_555
B6_4 Ru26_5 2.175563 1_555
B6_4 Ru6_4 2.221211 1_555
B6_4 Ru6_5 2.221211 1_555
B6_4 Ti9_4 2.642583 1_555
B6_4 Ti0_4 2.709887 1_555
B6_4 Ti12_0 2.775158 1_655
B6_5 Ru34_4 2.162428 1_556
B6_5 Ru34_5 2.162428 1_555
B6_5 Ru26_4 2.175563 1_556
B6_5 Ru26_5 2.175563 1_555
B6_5 Ru6_4 2.221211 1_556
B6_5 Ru6_5 2.221211 1_555
B6_5 Ti9_5 2.642583 1_555
B6_5 Ti0_5 2.709887 1_555
B6_5 Ti12_1 2.775158 1_655
B6_6 Ru34_6 2.162428 1_555
B6_6 Ru34_7 2.162428 1_555
B6_6 Ru26_7 2.175563 1_555
B6_6 Ru26_6 2.175563 1_555
B6_6 Ru6_6 2.221211 1_555
B6_6 Ru6_7 2.221211 1_555
B6_6 Ti9_6 2.642583 1_555
B6_6 Ti0_6 2.709887 1_555
B6_6 Ti12_2 2.775158 1_655
B6_7 Ru34_6 2.162428 1_556
B6_7 Ru34_7 2.162428 1_555
B6_7 Ru26_7 2.175563 1_555
B6_7 Ru26_6 2.175563 1_556
B6_7 Ru6_6 2.221211 1_556
B6_7 Ru6_7 2.221211 1_555
B6_7 Ti9_7 2.642583 1_555
B6_7 Ti0_7 2.709887 1_555
B6_7 Ti12_3 2.775158 1_655
B7_0 Ru35_1 2.162428 1_555
B7_0 Ru35_0 2.162428 1_555
B7_0 Ru27_0 2.175563 1_555
B7_0 Ru27_1 2.175563 1_555
B7_0 Ru7_0 2.221211 1_555
B7_0 Ru7_1 2.221211 1_555
B7_0 Ti8_0 2.642583 1_555
B7_0 Ti1_0 2.709887 1_555
B7_0 Ti13_4 2.775158 1_455
B7_1 Ru35_0 2.162428 1_556
B7_1 Ru35_1 2.162428 1_555
B7_1 Ru27_0 2.175563 1_556
B7_1 Ru27_1 2.175563 1_555
B7_1 Ru7_0 2.221211 1_556
B7_1 Ru7_1 2.221211 1_555
B7_1 Ti8_1 2.642583 1_555
B7_1 Ti1_1 2.709887 1_555
B7_1 Ti13_5 2.775158 1_455
B7_2 Ru35_2 2.162428 1_555
B7_2 Ru35_3 2.162428 1_555
B7_2 Ru27_3 2.175563 1_555
B7_2 Ru27_2 2.175563 1_555
B7_2 Ru7_3 2.221211 1_555
B7_2 Ru7_2 2.221211 1_555
B7_2 Ti8_2 2.642583 1_555
B7_2 Ti1_2 2.709887 1_555
B7_2 Ti13_6 2.775158 1_455
B7_3 Ru35_3 2.162428 1_555
B7_3 Ru35_2 2.162428 1_556
B7_3 Ru27_3 2.175563 1_555
B7_3 Ru27_2 2.175563 1_556
B7_3 Ru7_3 2.221211 1_555
B7_3 Ru7_2 2.221211 1_556
B7_3 Ti8_3 2.642583 1_555
B7_3 Ti1_3 2.709887 1_555
B7_3 Ti13_7 2.775158 1_455
B7_4 Ru35_4 2.162428 1_555
B7_4 Ru35_5 2.162428 1_555
B7_4 Ru27_4 2.175563 1_555
B7_4 Ru27_5 2.175563 1_555
B7_4 Ru7_4 2.221211 1_555
B7_4 Ru7_5 2.221211 1_555
B7_4 Ti8_4 2.642583 1_555
B7_4 Ti1_4 2.709887 1_555
B7_4 Ti13_0 2.775158 1_555
B7_5 Ru35_4 2.162428 1_556
B7_5 Ru35_5 2.162428 1_555
B7_5 Ru27_4 2.175563 1_556
B7_5 Ru27_5 2.175563 1_555
B7_5 Ru7_5 2.221211 1_555
B7_5 Ru7_4 2.221211 1_556
B7_5 Ti8_5 2.642583 1_555
B7_5 Ti1_5 2.709887 1_555
B7_5 Ti13_1 2.775158 1_555
B7_6 Ru35_6 2.162428 1_555
B7_6 Ru35_7 2.162428 1_555
B7_6 Ru27_7 2.175563 1_555
B7_6 Ru27_6 2.175563 1_555
B7_6 Ru7_7 2.221211 1_555
B7_6 Ru7_6 2.221211 1_555
B7_6 Ti8_6 2.642583 1_555
B7_6 Ti1_6 2.709887 1_555
B7_6 Ti13_2 2.775158 1_555
B7_7 Ru35_6 2.162428 1_556
B7_7 Ru35_7 2.162428 1_555
B7_7 Ru27_6 2.175563 1_556
B7_7 Ru27_7 2.175563 1_555
B7_7 Ru7_7 2.221211 1_555
B7_7 Ru7_6 2.221211 1_556
B7_7 Ti8_7 2.642583 1_555
B7_7 Ti1_7 2.709887 1_555
B7_7 Ti13_3 2.775158 1_555
B8_0 Ru12_1 2.174481 1_555
B8_0 Ru12_0 2.174481 1_555
B8_0 Ru8_1 2.214843 1_555
B8_0 Ru8_0 2.214843 1_555
B8_0 Ru0_0 2.218364 1_555
B8_0 Ru0_1 2.218364 1_555
B8_0 Cu0_0 2.541431 1_555
B8_0 Ti0_0 2.842042 1_555
B8_0 Ti6_0 2.897228 1_555
B8_1 Ru12_1 2.174481 1_555
B8_1 Ru12_0 2.174481 1_556
B8_1 Ru8_0 2.214843 1_556
B8_1 Ru8_1 2.214843 1_555
B8_1 Ru0_1 2.218364 1_555
B8_1 Ru0_0 2.218364 1_556
B8_1 Cu0_1 2.541431 1_555
B8_1 Ti0_1 2.842042 1_555
B8_1 Ti6_1 2.897228 1_555
B8_2 Ru12_2 2.174481 1_555
B8_2 Ru12_3 2.174481 1_555
B8_2 Ru8_2 2.214843 1_555
B8_2 Ru8_3 2.214843 1_555
B8_2 Ru0_2 2.218364 1_555
B8_2 Ru0_3 2.218364 1_555
B8_2 Cu0_2 2.541431 1_555
B8_2 Ti0_2 2.842042 1_555
B8_2 Ti6_2 2.897228 1_555
B8_3 Ru12_2 2.174481 1_556
B8_3 Ru12_3 2.174481 1_555
B8_3 Ru8_2 2.214843 1_556
B8_3 Ru8_3 2.214843 1_555
B8_3 Ru0_3 2.218364 1_555
B8_3 Ru0_2 2.218364 1_556
B8_3 Cu0_3 2.541431 1_555
B8_3 Ti0_3 2.842042 1_555
B8_3 Ti6_3 2.897228 1_555
B8_4 Ru12_4 2.174481 1_555
B8_4 Ru12_5 2.174481 1_555
B8_4 Ru8_4 2.214843 1_555
B8_4 Ru8_5 2.214843 1_555
B8_4 Ru0_4 2.218364 1_555
B8_4 Ru0_5 2.218364 1_555
B8_4 Cu0_4 2.541431 1_555
B8_4 Ti0_4 2.842042 1_555
B8_4 Ti6_4 2.897228 1_555
B8_5 Ru12_4 2.174481 1_556
B8_5 Ru12_5 2.174481 1_555
B8_5 Ru8_4 2.214843 1_556
B8_5 Ru8_5 2.214843 1_555
B8_5 Ru0_4 2.218364 1_556
B8_5 Ru0_5 2.218364 1_555
B8_5 Cu0_5 2.541431 1_555
B8_5 Ti0_5 2.842042 1_555
B8_5 Ti6_5 2.897228 1_555
B8_6 Ru12_7 2.174481 1_555
B8_6 Ru12_6 2.174481 1_555
B8_6 Ru8_7 2.214843 1_555
B8_6 Ru8_6 2.214843 1_555
B8_6 Ru0_7 2.218364 1_555
B8_6 Ru0_6 2.218364 1_555
B8_6 Cu0_6 2.541431 1_555
B8_6 Ti0_6 2.842042 1_555
B8_6 Ti6_6 2.897228 1_555
B8_7 Ru12_7 2.174481 1_555
B8_7 Ru12_6 2.174481 1_556
B8_7 Ru8_7 2.214843 1_555
B8_7 Ru8_6 2.214843 1_556
B8_7 Ru0_7 2.218364 1_555
B8_7 Ru0_6 2.218364 1_556
B8_7 Cu0_7 2.541431 1_555
B8_7 Ti0_7 2.842042 1_555
B8_7 Ti6_7 2.897228 1_555
B9_0 Ru13_0 2.174481 1_555
B9_0 Ru13_1 2.174481 1_555
B9_0 Ru9_0 2.214843 1_555
B9_0 Ru9_1 2.214843 1_555
B9_0 Ru1_0 2.218364 1_555
B9_0 Ru1_1 2.218364 1_555
B9_0 Cu1_0 2.541431 1_555
B9_0 Ti1_0 2.842042 1_555
B9_0 Ti7_0 2.897228 1_555
B9_1 Ru13_0 2.174481 1_556
B9_1 Ru13_1 2.174481 1_555
B9_1 Ru9_0 2.214843 1_556
B9_1 Ru9_1 2.214843 1_555
B9_1 Ru1_0 2.218364 1_556
B9_1 Ru1_1 2.218364 1_555
B9_1 Cu1_1 2.541431 1_555
B9_1 Ti1_1 2.842042 1_555
B9_1 Ti7_1 2.897228 1_555
B9_2 Ru13_2 2.174481 1_555
B9_2 Ru13_3 2.174481 1_555
B9_2 Ru9_3 2.214843 1_555
B9_2 Ru9_2 2.214843 1_555
B9_2 Ru1_2 2.218364 1_555
B9_2 Ru1_3 2.218364 1_555
B9_2 Cu1_2 2.541431 1_555
B9_2 Ti1_2 2.842042 1_555
B9_2 Ti7_2 2.897228 1_555
B9_3 Ru13_2 2.174481 1_556
B9_3 Ru13_3 2.174481 1_555
B9_3 Ru9_2 2.214843 1_556
B9_3 Ru9_3 2.214843 1_555
B9_3 Ru1_3 2.218364 1_555
B9_3 Ru1_2 2.218364 1_556
B9_3 Cu1_3 2.541431 1_555
B9_3 Ti1_3 2.842042 1_555
B9_3 Ti7_3 2.897228 1_555
B9_4 Ru13_4 2.174481 1_555
B9_4 Ru13_5 2.174481 1_555
B9_4 Ru9_5 2.214843 1_555
B9_4 Ru9_4 2.214843 1_555
B9_4 Ru1_4 2.218364 1_555
B9_4 Ru1_5 2.218364 1_555
B9_4 Cu1_4 2.541431 1_555
B9_4 Ti1_4 2.842042 1_555
B9_4 Ti7_4 2.897228 1_555
B9_5 Ru13_4 2.174481 1_556
B9_5 Ru13_5 2.174481 1_555
B9_5 Ru9_5 2.214843 1_555
B9_5 Ru9_4 2.214843 1_556
B9_5 Ru1_4 2.218364 1_556
B9_5 Ru1_5 2.218364 1_555
B9_5 Cu1_5 2.541431 1_555
B9_5 Ti1_5 2.842042 1_555
B9_5 Ti7_5 2.897228 1_555
B9_6 Ru13_6 2.174481 1_555
B9_6 Ru13_7 2.174481 1_555
B9_6 Ru9_7 2.214843 1_555
B9_6 Ru9_6 2.214843 1_555
B9_6 Ru1_6 2.218364 1_555
B9_6 Ru1_7 2.218364 1_555
B9_6 Cu1_6 2.541431 1_555
B9_6 Ti1_6 2.842042 1_555
B9_6 Ti7_6 2.897228 1_555
B9_7 Ru13_6 2.174481 1_556
B9_7 Ru13_7 2.174481 1_555
B9_7 Ru9_6 2.214843 1_556
B9_7 Ru9_7 2.214843 1_555
B9_7 Ru1_7 2.218364 1_555
B9_7 Ru1_6 2.218364 1_556
B9_7 Cu1_7 2.541431 1_555
B9_7 Ti1_7 2.842042 1_555
B9_7 Ti7_7 2.897228 1_555
B10_0 Ru14_2 2.174481 1_545
B10_0 Ru14_3 2.174481 1_545
B10_0 Ru10_0 2.214843 1_555
B10_0 Ru10_1 2.214843 1_555
B10_0 Ru2_0 2.218364 1_555
B10_0 Ru2_1 2.218364 1_555
B10_0 Cu2_2 2.541431 1_545
B10_0 Ti2_0 2.842042 1_555
B10_0 Ti8_2 2.897228 1_545
B10_1 Ru14_3 2.174481 1_545
B10_1 Ru14_2 2.174481 1_546
B10_1 Ru10_0 2.214843 1_556
B10_1 Ru10_1 2.214843 1_555
B10_1 Ru2_0 2.218364 1_556
B10_1 Ru2_1 2.218364 1_555
B10_1 Cu2_3 2.541431 1_545
B10_1 Ti2_1 2.842042 1_555
B10_1 Ti8_3 2.897228 1_545
B10_2 Ru14_0 2.174481 1_555
B10_2 Ru14_1 2.174481 1_555
B10_2 Ru10_3 2.214843 1_555
B10_2 Ru10_2 2.214843 1_555
B10_2 Ru2_2 2.218364 1_555
B10_2 Ru2_3 2.218364 1_555
B10_2 Cu2_0 2.541431 1_555
B10_2 Ti2_2 2.842042 1_555
B10_2 Ti8_0 2.897228 1_555
B10_3 Ru14_0 2.174481 1_556
B10_3 Ru14_1 2.174481 1_555
B10_3 Ru10_2 2.214843 1_556
B10_3 Ru10_3 2.214843 1_555
B10_3 Ru2_2 2.218364 1_556
B10_3 Ru2_3 2.218364 1_555
B10_3 Cu2_1 2.541431 1_555
B10_3 Ti2_3 2.842042 1_555
B10_3 Ti8_1 2.897228 1_555
B10_4 Ru14_6 2.174481 1_545
B10_4 Ru14_7 2.174481 1_545
B10_4 Ru10_5 2.214843 1_555
B10_4 Ru10_4 2.214843 1_555
B10_4 Ru2_5 2.218364 1_555
B10_4 Ru2_4 2.218364 1_555
B10_4 Cu2_6 2.541431 1_545
B10_4 Ti2_4 2.842042 1_555
B10_4 Ti8_6 2.897228 1_545
B10_5 Ru14_6 2.174481 1_546
B10_5 Ru14_7 2.174481 1_545
B10_5 Ru10_5 2.214843 1_555
B10_5 Ru10_4 2.214843 1_556
B10_5 Ru2_5 2.218364 1_555
B10_5 Ru2_4 2.218364 1_556
B10_5 Cu2_7 2.541431 1_545
B10_5 Ti2_5 2.842042 1_555
B10_5 Ti8_7 2.897228 1_545
B10_6 Ru14_5 2.174481 1_555
B10_6 Ru14_4 2.174481 1_555
B10_6 Ru10_6 2.214843 1_555
B10_6 Ru10_7 2.214843 1_555
B10_6 Ru2_7 2.218364 1_555
B10_6 Ru2_6 2.218364 1_555
B10_6 Cu2_4 2.541431 1_555
B10_6 Ti2_6 2.842042 1_555
B10_6 Ti8_4 2.897228 1_555
B10_7 Ru14_5 2.174481 1_555
B10_7 Ru14_4 2.174481 1_556
B10_7 Ru10_6 2.214843 1_556
B10_7 Ru10_7 2.214843 1_555
B10_7 Ru2_7 2.218364 1_555
B10_7 Ru2_6 2.218364 1_556
B10_7 Cu2_5 2.541431 1_555
B10_7 Ti2_7 2.842042 1_555
B10_7 Ti8_5 2.897228 1_555
B11_0 Ru15_2 2.174481 1_555
B11_0 Ru15_3 2.174481 1_555
B11_0 Ru11_0 2.214843 1_555
B11_0 Ru11_1 2.214843 1_555
B11_0 Ru3_1 2.218364 1_555
B11_0 Ru3_0 2.218364 1_555
B11_0 Cu3_2 2.541431 1_555
B11_0 Ti3_0 2.842042 1_555
B11_0 Ti9_2 2.897228 1_555
B11_1 Ru15_3 2.174481 1_555
B11_1 Ru15_2 2.174481 1_556
B11_1 Ru11_0 2.214843 1_556
B11_1 Ru11_1 2.214843 1_555
B11_1 Ru3_0 2.218364 1_556
B11_1 Ru3_1 2.218364 1_555
B11_1 Cu3_3 2.541431 1_555
B11_1 Ti3_1 2.842042 1_555
B11_1 Ti9_3 2.897228 1_555
B11_2 Ru15_0 2.174481 1_565
B11_2 Ru15_1 2.174481 1_565
B11_2 Ru11_3 2.214843 1_555
B11_2 Ru11_2 2.214843 1_555
B11_2 Ru3_3 2.218364 1_555
B11_2 Ru3_2 2.218364 1_555
B11_2 Cu3_0 2.541431 1_565
B11_2 Ti3_2 2.842042 1_555
B11_2 Ti9_0 2.897228 1_565
B11_3 Ru15_1 2.174481 1_565
B11_3 Ru15_0 2.174481 1_566
B11_3 Ru11_2 2.214843 1_556
B11_3 Ru11_3 2.214843 1_555
B11_3 Ru3_3 2.218364 1_555
B11_3 Ru3_2 2.218364 1_556
B11_3 Cu3_1 2.541431 1_565
B11_3 Ti3_3 2.842042 1_555
B11_3 Ti9_1 2.897228 1_565
B11_4 Ru15_6 2.174481 1_555
B11_4 Ru15_7 2.174481 1_555
B11_4 Ru11_4 2.214843 1_555
B11_4 Ru11_5 2.214843 1_555
B11_4 Ru3_5 2.218364 1_555
B11_4 Ru3_4 2.218364 1_555
B11_4 Cu3_6 2.541431 1_555
B11_4 Ti3_4 2.842042 1_555
B11_4 Ti9_6 2.897228 1_555
B11_5 Ru15_6 2.174481 1_556
B11_5 Ru15_7 2.174481 1_555
B11_5 Ru11_4 2.214843 1_556
B11_5 Ru11_5 2.214843 1_555
B11_5 Ru3_5 2.218364 1_555
B11_5 Ru3_4 2.218364 1_556
B11_5 Cu3_7 2.541431 1_555
B11_5 Ti3_5 2.842042 1_555
B11_5 Ti9_7 2.897228 1_555
B11_6 Ru15_5 2.174481 1_565
B11_6 Ru15_4 2.174481 1_565
B11_6 Ru11_7 2.214843 1_555
B11_6 Ru11_6 2.214843 1_555
B11_6 Ru3_6 2.218364 1_555
B11_6 Ru3_7 2.218364 1_555
B11_6 Cu3_4 2.541431 1_565
B11_6 Ti3_6 2.842042 1_555
B11_6 Ti9_4 2.897228 1_565
B11_7 Ru15_5 2.174481 1_565
B11_7 Ru15_4 2.174481 1_566
B11_7 Ru11_6 2.214843 1_556
B11_7 Ru11_7 2.214843 1_555
B11_7 Ru3_6 2.218364 1_556
B11_7 Ru3_7 2.218364 1_555
B11_7 Cu3_5 2.541431 1_565
B11_7 Ti3_7 2.842042 1_555
B11_7 Ti9_5 2.897228 1_565
B12_0 Ru16_1 2.174481 1_555
B12_0 Ru16_0 2.174481 1_555
B12_0 Ru11_1 2.214843 1_555
B12_0 Ru11_0 2.214843 1_555
B12_0 Ru4_0 2.218364 1_555
B12_0 Ru4_1 2.218364 1_555
B12_0 Cu2_0 2.541431 1_555
B12_0 Ti3_0 2.842042 1_555
B12_0 Ti10_0 2.897228 1_555
B12_1 Ru16_1 2.174481 1_555
B12_1 Ru16_0 2.174481 1_556
B12_1 Ru11_1 2.214843 1_555
B12_1 Ru11_0 2.214843 1_556
B12_1 Ru4_1 2.218364 1_555
B12_1 Ru4_0 2.218364 1_556
B12_1 Cu2_1 2.541431 1_555
B12_1 Ti3_1 2.842042 1_555
B12_1 Ti10_1 2.897228 1_555
B12_2 Ru16_2 2.174481 1_555
B12_2 Ru16_3 2.174481 1_555
B12_2 Ru11_3 2.214843 1_555
B12_2 Ru11_2 2.214843 1_555
B12_2 Ru4_2 2.218364 1_555
B12_2 Ru4_3 2.218364 1_555
B12_2 Cu2_2 2.541431 1_555
B12_2 Ti3_2 2.842042 1_555
B12_2 Ti10_2 2.897228 1_555
B12_3 Ru16_2 2.174481 1_556
B12_3 Ru16_3 2.174481 1_555
B12_3 Ru11_2 2.214843 1_556
B12_3 Ru11_3 2.214843 1_555
B12_3 Ru4_2 2.218364 1_556
B12_3 Ru4_3 2.218364 1_555
B12_3 Cu2_3 2.541431 1_555
B12_3 Ti3_3 2.842042 1_555
B12_3 Ti10_3 2.897228 1_555
B12_4 Ru16_5 2.174481 1_555
B12_4 Ru16_4 2.174481 1_555
B12_4 Ru11_5 2.214843 1_555
B12_4 Ru11_4 2.214843 1_555
B12_4 Ru4_4 2.218364 1_555
B12_4 Ru4_5 2.218364 1_555
B12_4 Cu2_4 2.541431 1_555
B12_4 Ti3_4 2.842042 1_555
B12_4 Ti10_4 2.897228 1_555
B12_5 Ru16_4 2.174481 1_556
B12_5 Ru16_5 2.174481 1_555
B12_5 Ru11_5 2.214843 1_555
B12_5 Ru11_4 2.214843 1_556
B12_5 Ru4_5 2.218364 1_555
B12_5 Ru4_4 2.218364 1_556
B12_5 Cu2_5 2.541431 1_555
B12_5 Ti3_5 2.842042 1_555
B12_5 Ti10_5 2.897228 1_555
B12_6 Ru16_6 2.174481 1_555
B12_6 Ru16_7 2.174481 1_555
B12_6 Ru11_7 2.214843 1_555
B12_6 Ru11_6 2.214843 1_555
B12_6 Ru4_7 2.218364 1_555
B12_6 Ru4_6 2.218364 1_555
B12_6 Cu2_6 2.541431 1_555
B12_6 Ti3_6 2.842042 1_555
B12_6 Ti10_6 2.897228 1_555
B12_7 Ru16_6 2.174481 1_556
B12_7 Ru16_7 2.174481 1_555
B12_7 Ru11_6 2.214843 1_556
B12_7 Ru11_7 2.214843 1_555
B12_7 Ru4_7 2.218364 1_555
B12_7 Ru4_6 2.218364 1_556
B12_7 Cu2_7 2.541431 1_555
B12_7 Ti3_7 2.842042 1_555
B12_7 Ti10_7 2.897228 1_555
B13_0 Ru17_1 2.174481 1_555
B13_0 Ru17_0 2.174481 1_555
B13_0 Ru10_0 2.214843 1_555
B13_0 Ru10_1 2.214843 1_555
B13_0 Ru5_1 2.218364 1_555
B13_0 Ru5_0 2.218364 1_555
B13_0 Cu3_0 2.541431 1_555
B13_0 Ti2_0 2.842042 1_555
B13_0 Ti11_0 2.897228 1_555
B13_1 Ru17_1 2.174481 1_555
B13_1 Ru17_0 2.174481 1_556
B13_1 Ru10_0 2.214843 1_556
B13_1 Ru10_1 2.214843 1_555
B13_1 Ru5_1 2.218364 1_555
B13_1 Ru5_0 2.218364 1_556
B13_1 Cu3_1 2.541431 1_555
B13_1 Ti2_1 2.842042 1_555
B13_1 Ti11_1 2.897228 1_555
B13_2 Ru17_3 2.174481 1_555
B13_2 Ru17_2 2.174481 1_555
B13_2 Ru10_2 2.214843 1_555
B13_2 Ru10_3 2.214843 1_555
B13_2 Ru5_3 2.218364 1_555
B13_2 Ru5_2 2.218364 1_555
B13_2 Cu3_2 2.541431 1_555
B13_2 Ti2_2 2.842042 1_555
B13_2 Ti11_2 2.897228 1_555
B13_3 Ru17_3 2.174481 1_555
B13_3 Ru17_2 2.174481 1_556
B13_3 Ru10_2 2.214843 1_556
B13_3 Ru10_3 2.214843 1_555
B13_3 Ru5_2 2.218364 1_556
B13_3 Ru5_3 2.218364 1_555
B13_3 Cu3_3 2.541431 1_555
B13_3 Ti2_3 2.842042 1_555
B13_3 Ti11_3 2.897228 1_555
B13_4 Ru17_4 2.174481 1_555
B13_4 Ru17_5 2.174481 1_555
B13_4 Ru10_5 2.214843 1_555
B13_4 Ru10_4 2.214843 1_555
B13_4 Ru5_4 2.218364 1_555
B13_4 Ru5_5 2.218364 1_555
B13_4 Cu3_4 2.541431 1_555
B13_4 Ti2_4 2.842042 1_555
B13_4 Ti11_4 2.897228 1_555
B13_5 Ru17_4 2.174481 1_556
B13_5 Ru17_5 2.174481 1_555
B13_5 Ru10_4 2.214843 1_556
B13_5 Ru10_5 2.214843 1_555
B13_5 Ru5_4 2.218364 1_556
B13_5 Ru5_5 2.218364 1_555
B13_5 Cu3_5 2.541431 1_555
B13_5 Ti2_5 2.842042 1_555
B13_5 Ti11_5 2.897228 1_555
B13_6 Ru17_7 2.174481 1_555
B13_6 Ru17_6 2.174481 1_555
B13_6 Ru10_6 2.214843 1_555
B13_6 Ru10_7 2.214843 1_555
B13_6 Ru5_6 2.218364 1_555
B13_6 Ru5_7 2.218364 1_555
B13_6 Cu3_6 2.541431 1_555
B13_6 Ti2_6 2.842042 1_555
B13_6 Ti11_6 2.897228 1_555
B13_7 Ru17_6 2.174481 1_556
B13_7 Ru17_7 2.174481 1_555
B13_7 Ru10_6 2.214843 1_556
B13_7 Ru10_7 2.214843 1_555
B13_7 Ru5_6 2.218364 1_556
B13_7 Ru5_7 2.218364 1_555
B13_7 Cu3_7 2.541431 1_555
B13_7 Ti2_7 2.842042 1_555
B13_7 Ti11_7 2.897228 1_555
B14_0 Ru18_4 2.174481 1_555
B14_0 Ru18_5 2.174481 1_555
B14_0 Ru8_0 2.214843 1_555
B14_0 Ru8_1 2.214843 1_555
B14_0 Ru6_1 2.218364 1_555
B14_0 Ru6_0 2.218364 1_555
B14_0 Cu1_4 2.541431 1_555
B14_0 Ti0_0 2.842042 1_555
B14_0 Ti12_4 2.897228 1_555
B14_1 Ru18_5 2.174481 1_555
B14_1 Ru18_4 2.174481 1_556
B14_1 Ru8_1 2.214843 1_555
B14_1 Ru8_0 2.214843 1_556
B14_1 Ru6_0 2.218364 1_556
B14_1 Ru6_1 2.218364 1_555
B14_1 Cu1_5 2.541431 1_555
B14_1 Ti0_1 2.842042 1_555
B14_1 Ti12_5 2.897228 1_555
B14_2 Ru18_6 2.174481 1_555
B14_2 Ru18_7 2.174481 1_555
B14_2 Ru8_3 2.214843 1_555
B14_2 Ru8_2 2.214843 1_555
B14_2 Ru6_3 2.218364 1_555
B14_2 Ru6_2 2.218364 1_555
B14_2 Cu1_6 2.541431 1_555
B14_2 Ti0_2 2.842042 1_555
B14_2 Ti12_6 2.897228 1_555
B14_3 Ru18_6 2.174481 1_556
B14_3 Ru18_7 2.174481 1_555
B14_3 Ru8_2 2.214843 1_556
B14_3 Ru8_3 2.214843 1_555
B14_3 Ru6_3 2.218364 1_555
B14_3 Ru6_2 2.218364 1_556
B14_3 Cu1_7 2.541431 1_555
B14_3 Ti0_3 2.842042 1_555
B14_3 Ti12_7 2.897228 1_555
B14_4 Ru18_0 2.174481 1_655
B14_4 Ru18_1 2.174481 1_655
B14_4 Ru8_5 2.214843 1_555
B14_4 Ru8_4 2.214843 1_555
B14_4 Ru6_5 2.218364 1_555
B14_4 Ru6_4 2.218364 1_555
B14_4 Cu1_0 2.541431 1_655
B14_4 Ti0_4 2.842042 1_555
B14_4 Ti12_0 2.897228 1_655
B14_5 Ru18_0 2.174481 1_656
B14_5 Ru18_1 2.174481 1_655
B14_5 Ru8_5 2.214843 1_555
B14_5 Ru8_4 2.214843 1_556
B14_5 Ru6_5 2.218364 1_555
B14_5 Ru6_4 2.218364 1_556
B14_5 Cu1_1 2.541431 1_655
B14_5 Ti0_5 2.842042 1_555
B14_5 Ti12_1 2.897228 1_655
B14_6 Ru18_2 2.174481 1_655
B14_6 Ru18_3 2.174481 1_655
B14_6 Ru8_7 2.214843 1_555
B14_6 Ru8_6 2.214843 1_555
B14_6 Ru6_6 2.218364 1_555
B14_6 Ru6_7 2.218364 1_555
B14_6 Cu1_2 2.541431 1_655
B14_6 Ti0_6 2.842042 1_555
B14_6 Ti12_2 2.897228 1_655
B14_7 Ru18_2 2.174481 1_656
B14_7 Ru18_3 2.174481 1_655
B14_7 Ru8_7 2.214843 1_555
B14_7 Ru8_6 2.214843 1_556
B14_7 Ru6_7 2.218364 1_555
B14_7 Ru6_6 2.218364 1_556
B14_7 Cu1_3 2.541431 1_655
B14_7 Ti0_7 2.842042 1_555
B14_7 Ti12_3 2.897228 1_655
B15_0 Ru19_5 2.174481 1_455
B15_0 Ru19_4 2.174481 1_455
B15_0 Ru9_0 2.214843 1_555
B15_0 Ru9_1 2.214843 1_555
B15_0 Ru7_0 2.218364 1_555
B15_0 Ru7_1 2.218364 1_555
B15_0 Cu0_4 2.541431 1_455
B15_0 Ti1_0 2.842042 1_555
B15_0 Ti13_4 2.897228 1_455
B15_1 Ru19_5 2.174481 1_455
B15_1 Ru19_4 2.174481 1_456
B15_1 Ru9_0 2.214843 1_556
B15_1 Ru9_1 2.214843 1_555
B15_1 Ru7_0 2.218364 1_556
B15_1 Ru7_1 2.218364 1_555
B15_1 Cu0_5 2.541431 1_455
B15_1 Ti1_1 2.842042 1_555
B15_1 Ti13_5 2.897228 1_455
B15_2 Ru19_7 2.174481 1_455
B15_2 Ru19_6 2.174481 1_455
B15_2 Ru9_2 2.214843 1_555
B15_2 Ru9_3 2.214843 1_555
B15_2 Ru7_3 2.218364 1_555
B15_2 Ru7_2 2.218364 1_555
B15_2 Cu0_6 2.541431 1_455
B15_2 Ti1_2 2.842042 1_555
B15_2 Ti13_6 2.897228 1_455
B15_3 Ru19_6 2.174481 1_456
B15_3 Ru19_7 2.174481 1_455
B15_3 Ru9_2 2.214843 1_556
B15_3 Ru9_3 2.214843 1_555
B15_3 Ru7_2 2.218364 1_556
B15_3 Ru7_3 2.218364 1_555
B15_3 Cu0_7 2.541431 1_455
B15_3 Ti1_3 2.842042 1_555
B15_3 Ti13_7 2.897228 1_455
B15_4 Ru19_0 2.174481 1_555
B15_4 Ru19_1 2.174481 1_555
B15_4 Ru9_5 2.214843 1_555
B15_4 Ru9_4 2.214843 1_555
B15_4 Ru7_4 2.218364 1_555
B15_4 Ru7_5 2.218364 1_555
B15_4 Cu0_0 2.541431 1_555
B15_4 Ti1_4 2.842042 1_555
B15_4 Ti13_0 2.897228 1_555
B15_5 Ru19_0 2.174481 1_556
B15_5 Ru19_1 2.174481 1_555
B15_5 Ru9_5 2.214843 1_555
B15_5 Ru9_4 2.214843 1_556
B15_5 Ru7_4 2.218364 1_556
B15_5 Ru7_5 2.218364 1_555
B15_5 Cu0_1 2.541431 1_555
B15_5 Ti1_5 2.842042 1_555
B15_5 Ti13_1 2.897228 1_555
B15_6 Ru19_3 2.174481 1_555
B15_6 Ru19_2 2.174481 1_555
B15_6 Ru9_7 2.214843 1_555
B15_6 Ru9_6 2.214843 1_555
B15_6 Ru7_7 2.218364 1_555
B15_6 Ru7_6 2.218364 1_555
B15_6 Cu0_2 2.541431 1_555
B15_6 Ti1_6 2.842042 1_555
B15_6 Ti13_2 2.897228 1_555
B15_7 Ru19_3 2.174481 1_555
B15_7 Ru19_2 2.174481 1_556
B15_7 Ru9_6 2.214843 1_556
B15_7 Ru9_7 2.214843 1_555
B15_7 Ru7_7 2.218364 1_555
B15_7 Ru7_6 2.218364 1_556
B15_7 Cu0_3 2.541431 1_555
B15_7 Ti1_7 2.842042 1_555
B15_7 Ti13_3 2.897228 1_555
Ru0_0 Ti0_1 2.670809 1_554
Ru0_0 Ti0_0 2.670809 1_555
Ru0_0 Ti6_0 2.783671 1_555
Ru0_0 Ti6_1 2.783671 1_554
Ru0_1 Ti0_0 2.670809 1_555
Ru0_1 Ti0_1 2.670809 1_555
Ru0_1 Ti6_1 2.783671 1_555
Ru0_1 Ti6_0 2.783671 1_555
Ru0_2 Ti0_3 2.670809 1_554
Ru0_2 Ti0_2 2.670809 1_555
Ru0_2 Ti6_3 2.783671 1_554
Ru0_2 Ti6_2 2.783671 1_555
Ru0_3 Ti0_3 2.670809 1_555
Ru0_3 Ti0_2 2.670809 1_555
Ru0_3 Ti6_2 2.783671 1_555
Ru0_3 Ti6_3 2.783671 1_555
Ru0_4 Ti0_4 2.670809 1_555
Ru0_4 Ti0_5 2.670809 1_554
Ru0_4 Ti6_4 2.783671 1_555
Ru0_4 Ti6_5 2.783671 1_554
Ru0_5 Ti0_4 2.670809 1_555
Ru0_5 Ti0_5 2.670809 1_555
Ru0_5 Ti6_4 2.783671 1_555
Ru0_5 Ti6_5 2.783671 1_555
Ru0_6 Ti0_7 2.670809 1_554
Ru0_6 Ti0_6 2.670809 1_555
Ru0_6 Ti6_6 2.783671 1_555
Ru0_6 Ti6_7 2.783671 1_554
Ru0_7 Ti0_6 2.670809 1_555
Ru0_7 Ti0_7 2.670809 1_555
Ru0_7 Ti6_6 2.783671 1_555
Ru0_7 Ti6_7 2.783671 1_555
Ru1_0 Ti1_0 2.670809 1_555
Ru1_0 Ti1_1 2.670809 1_554
Ru1_0 Ti7_1 2.783671 1_554
Ru1_0 Ti7_0 2.783671 1_555
Ru1_1 Ti1_0 2.670809 1_555
Ru1_1 Ti1_1 2.670809 1_555
Ru1_1 Ti7_0 2.783671 1_555
Ru1_1 Ti7_1 2.783671 1_555
Ru1_2 Ti1_3 2.670809 1_554
Ru1_2 Ti1_2 2.670809 1_555
Ru1_2 Ti7_3 2.783671 1_554
Ru1_2 Ti7_2 2.783671 1_555
Ru1_3 Ti1_2 2.670809 1_555
Ru1_3 Ti1_3 2.670809 1_555
Ru1_3 Ti7_2 2.783671 1_555
Ru1_3 Ti7_3 2.783671 1_555
Ru1_4 Ti1_4 2.670809 1_555
Ru1_4 Ti1_5 2.670809 1_554
Ru1_4 Ti7_5 2.783671 1_554
Ru1_4 Ti7_4 2.783671 1_555
Ru1_5 Ti1_4 2.670809 1_555
Ru1_5 Ti1_5 2.670809 1_555
Ru1_5 Ti7_4 2.783671 1_555
Ru1_5 Ti7_5 2.783671 1_555
Ru1_6 Ti1_7 2.670809 1_554
Ru1_6 Ti1_6 2.670809 1_555
Ru1_6 Ti7_7 2.783671 1_554
Ru1_6 Ti7_6 2.783671 1_555
Ru1_7 Ti1_7 2.670809 1_555
Ru1_7 Ti1_6 2.670809 1_555
Ru1_7 Ti7_7 2.783671 1_555
Ru1_7 Ti7_6 2.783671 1_555
Ru2_0 Ti2_1 2.670809 1_554
Ru2_0 Ti2_0 2.670809 1_555
Ru2_0 Ti8_2 2.783671 1_545
Ru2_0 Ti8_3 2.783671 1_544
Ru2_1 Ti2_0 2.670809 1_555
Ru2_1 Ti2_1 2.670809 1_555
Ru2_1 Ti8_2 2.783671 1_545
Ru2_1 Ti8_3 2.783671 1_545
Ru2_2 Ti2_3 2.670809 1_554
Ru2_2 Ti2_2 2.670809 1_555
Ru2_2 Ti8_0 2.783671 1_555
Ru2_2 Ti8_1 2.783671 1_554
Ru2_3 Ti2_2 2.670809 1_555
Ru2_3 Ti2_3 2.670809 1_555
Ru2_3 Ti8_0 2.783671 1_555
Ru2_3 Ti8_1 2.783671 1_555
Ru2_4 Ti2_4 2.670809 1_555
Ru2_4 Ti2_5 2.670809 1_554
Ru2_4 Ti8_7 2.783671 1_544
Ru2_4 Ti8_6 2.783671 1_545
Ru2_5 Ti2_4 2.670809 1_555
Ru2_5 Ti2_5 2.670809 1_555
Ru2_5 Ti8_7 2.783671 1_545
Ru2_5 Ti8_6 2.783671 1_545
Ru2_6 Ti2_7 2.670809 1_554
Ru2_6 Ti2_6 2.670809 1_555
Ru2_6 Ti8_5 2.783671 1_554
Ru2_6 Ti8_4 2.783671 1_555
Ru2_7 Ti2_6 2.670809 1_555
Ru2_7 Ti2_7 2.670809 1_555
Ru2_7 Ti8_5 2.783671 1_555
Ru2_7 Ti8_4 2.783671 1_555
Ru3_0 Ti3_1 2.670809 1_554
Ru3_0 Ti3_0 2.670809 1_555
Ru3_0 Ti9_2 2.783671 1_555
Ru3_0 Ti9_3 2.783671 1_554
Ru3_1 Ti3_0 2.670809 1_555
Ru3_1 Ti3_1 2.670809 1_555
Ru3_1 Ti9_3 2.783671 1_555
Ru3_1 Ti9_2 2.783671 1_555
Ru3_2 Ti3_3 2.670809 1_554
Ru3_2 Ti3_2 2.670809 1_555
Ru3_2 Ti9_0 2.783671 1_565
Ru3_2 Ti9_1 2.783671 1_564
Ru3_3 Ti3_3 2.670809 1_555
Ru3_3 Ti3_2 2.670809 1_555
Ru3_3 Ti9_0 2.783671 1_565
Ru3_3 Ti9_1 2.783671 1_565
Ru3_4 Ti3_5 2.670809 1_554
Ru3_4 Ti3_4 2.670809 1_555
Ru3_4 Ti9_7 2.783671 1_554
Ru3_4 Ti9_6 2.783671 1_555
Ru3_5 Ti3_4 2.670809 1_555
Ru3_5 Ti3_5 2.670809 1_555
Ru3_5 Ti9_6 2.783671 1_555
Ru3_5 Ti9_7 2.783671 1_555
Ru3_6 Ti3_6 2.670809 1_555
Ru3_6 Ti3_7 2.670809 1_554
Ru3_6 Ti9_5 2.783671 1_564
Ru3_6 Ti9_4 2.783671 1_565
Ru3_7 Ti3_6 2.670809 1_555
Ru3_7 Ti3_7 2.670809 1_555
Ru3_7 Ti9_4 2.783671 1_565
Ru3_7 Ti9_5 2.783671 1_565
Ru4_0 Ti3_0 2.670809 1_555
Ru4_0 Ti3_1 2.670809 1_554
Ru4_0 Ti10_1 2.783671 1_554
Ru4_0 Ti10_0 2.783671 1_555
Ru4_1 Ti3_0 2.670809 1_555
Ru4_1 Ti3_1 2.670809 1_555
Ru4_1 Ti10_0 2.783671 1_555
Ru4_1 Ti10_1 2.783671 1_555
Ru4_2 Ti3_3 2.670809 1_554
Ru4_2 Ti3_2 2.670809 1_555
Ru4_2 Ti10_2 2.783671 1_555
Ru4_2 Ti10_3 2.783671 1_554
Ru4_3 Ti3_2 2.670809 1_555
Ru4_3 Ti3_3 2.670809 1_555
Ru4_3 Ti10_2 2.783671 1_555
Ru4_3 Ti10_3 2.783671 1_555
Ru4_4 Ti3_5 2.670809 1_554
Ru4_4 Ti3_4 2.670809 1_555
Ru4_4 Ti10_5 2.783671 1_554
Ru4_4 Ti10_4 2.783671 1_555
Ru4_5 Ti3_5 2.670809 1_555
Ru4_5 Ti3_4 2.670809 1_555
Ru4_5 Ti10_4 2.783671 1_555
Ru4_5 Ti10_5 2.783671 1_555
Ru4_6 Ti3_7 2.670809 1_554
Ru4_6 Ti3_6 2.670809 1_555
Ru4_6 Ti10_6 2.783671 1_555
Ru4_6 Ti10_7 2.783671 1_554
Ru4_7 Ti3_7 2.670809 1_555
Ru4_7 Ti3_6 2.670809 1_555
Ru4_7 Ti10_6 2.783671 1_555
Ru4_7 Ti10_7 2.783671 1_555
Ru5_0 Ti2_0 2.670809 1_555
Ru5_0 Ti2_1 2.670809 1_554
Ru5_0 Ti11_0 2.783671 1_555
Ru5_0 Ti11_1 2.783671 1_554
Ru5_1 Ti2_0 2.670809 1_555
Ru5_1 Ti2_1 2.670809 1_555
Ru5_1 Ti11_0 2.783671 1_555
Ru5_1 Ti11_1 2.783671 1_555
Ru5_2 Ti2_3 2.670809 1_554
Ru5_2 Ti2_2 2.670809 1_555
Ru5_2 Ti11_3 2.783671 1_554
Ru5_2 Ti11_2 2.783671 1_555
Ru5_3 Ti2_2 2.670809 1_555
Ru5_3 Ti2_3 2.670809 1_555
Ru5_3 Ti11_3 2.783671 1_555
Ru5_3 Ti11_2 2.783671 1_555
Ru5_4 Ti2_4 2.670809 1_555
Ru5_4 Ti2_5 2.670809 1_554
Ru5_4 Ti11_4 2.783671 1_555
Ru5_4 Ti11_5 2.783671 1_554
Ru5_5 Ti2_4 2.670809 1_555
Ru5_5 Ti2_5 2.670809 1_555
Ru5_5 Ti11_4 2.783671 1_555
Ru5_5 Ti11_5 2.783671 1_555
Ru5_6 Ti2_7 2.670809 1_554
Ru5_6 Ti2_6 2.670809 1_555
Ru5_6 Ti11_7 2.783671 1_554
Ru5_6 Ti11_6 2.783671 1_555
Ru5_7 Ti2_7 2.670809 1_555
Ru5_7 Ti2_6 2.670809 1_555
Ru5_7 Ti11_7 2.783671 1_555
Ru5_7 Ti11_6 2.783671 1_555
Ru6_0 Ti0_0 2.670809 1_555
Ru6_0 Ti0_1 2.670809 1_554
Ru6_0 Ti12_5 2.783671 1_554
Ru6_0 Ti12_4 2.783671 1_555
Ru6_1 Ti0_0 2.670809 1_555
Ru6_1 Ti0_1 2.670809 1_555
Ru6_1 Ti12_4 2.783671 1_555
Ru6_1 Ti12_5 2.783671 1_555
Ru6_2 Ti0_2 2.670809 1_555
Ru6_2 Ti0_3 2.670809 1_554
Ru6_2 Ti12_7 2.783671 1_554
Ru6_2 Ti12_6 2.783671 1_555
Ru6_3 Ti0_3 2.670809 1_555
Ru6_3 Ti0_2 2.670809 1_555
Ru6_3 Ti12_6 2.783671 1_555
Ru6_3 Ti12_7 2.783671 1_555
Ru6_4 Ti0_4 2.670809 1_555
Ru6_4 Ti0_5 2.670809 1_554
Ru6_4 Ti12_0 2.783671 1_655
Ru6_4 Ti12_1 2.783671 1_654
Ru6_5 Ti0_5 2.670809 1_555
Ru6_5 Ti0_4 2.670809 1_555
Ru6_5 Ti12_0 2.783671 1_655
Ru6_5 Ti12_1 2.783671 1_655
Ru6_6 Ti0_7 2.670809 1_554
Ru6_6 Ti0_6 2.670809 1_555
Ru6_6 Ti12_2 2.783671 1_655
Ru6_6 Ti12_3 2.783671 1_654
Ru6_7 Ti0_6 2.670809 1_555
Ru6_7 Ti0_7 2.670809 1_555
Ru6_7 Ti12_2 2.783671 1_655
Ru6_7 Ti12_3 2.783671 1_655
Ru7_0 Ti1_0 2.670809 1_555
Ru7_0 Ti1_1 2.670809 1_554
Ru7_0 Ti13_4 2.783671 1_455
Ru7_0 Ti13_5 2.783671 1_454
Ru7_1 Ti1_0 2.670809 1_555
Ru7_1 Ti1_1 2.670809 1_555
Ru7_1 Ti13_4 2.783671 1_455
Ru7_1 Ti13_5 2.783671 1_455
Ru7_2 Ti1_3 2.670809 1_554
Ru7_2 Ti1_2 2.670809 1_555
Ru7_2 Ti13_6 2.783671 1_455
Ru7_2 Ti13_7 2.783671 1_454
Ru7_3 Ti1_2 2.670809 1_555
Ru7_3 Ti1_3 2.670809 1_555
Ru7_3 Ti13_6 2.783671 1_455
Ru7_3 Ti13_7 2.783671 1_455
Ru7_4 Ti1_5 2.670809 1_554
Ru7_4 Ti1_4 2.670809 1_555
Ru7_4 Ti13_1 2.783671 1_554
Ru7_4 Ti13_0 2.783671 1_555
Ru7_5 Ti1_4 2.670809 1_555
Ru7_5 Ti1_5 2.670809 1_555
Ru7_5 Ti13_0 2.783671 1_555
Ru7_5 Ti13_1 2.783671 1_555
Ru7_6 Ti1_7 2.670809 1_554
Ru7_6 Ti1_6 2.670809 1_555
Ru7_6 Ti13_2 2.783671 1_555
Ru7_6 Ti13_3 2.783671 1_554
Ru7_7 Ti1_6 2.670809 1_555
Ru7_7 Ti1_7 2.670809 1_555
Ru7_7 Ti13_3 2.783671 1_555
Ru7_7 Ti13_2 2.783671 1_555
Ru12_0 Ti14_1 2.582487 1_554
Ru12_0 Ti14_0 2.582487 1_555
Ru12_0 Ti6_1 2.879350 1_554
Ru12_0 Ti6_0 2.879350 1_555
Ru12_1 Ti14_1 2.582487 1_555
Ru12_1 Ti14_0 2.582487 1_555
Ru12_1 Ti6_1 2.879350 1_555
Ru12_1 Ti6_0 2.879350 1_555
Ru12_2 Ti14_3 2.582487 1_554
Ru12_2 Ti14_2 2.582487 1_555
Ru12_2 Ti6_3 2.879350 1_554
Ru12_2 Ti6_2 2.879350 1_555
Ru12_3 Ti14_3 2.582487 1_555
Ru12_3 Ti14_2 2.582487 1_555
Ru12_3 Ti6_3 2.879350 1_555
Ru12_3 Ti6_2 2.879350 1_555
Ru12_4 Ti14_4 2.582487 1_555
Ru12_4 Ti14_5 2.582487 1_554
Ru12_4 Ti6_4 2.879350 1_555
Ru12_4 Ti6_5 2.879350 1_554
Ru12_5 Ti14_4 2.582487 1_555
Ru12_5 Ti14_5 2.582487 1_555
Ru12_5 Ti6_4 2.879350 1_555
Ru12_5 Ti6_5 2.879350 1_555
Ru12_6 Ti14_6 2.582487 1_555
Ru12_6 Ti14_7 2.582487 1_554
Ru12_6 Ti6_7 2.879350 1_554
Ru12_6 Ti6_6 2.879350 1_555
Ru12_7 Ti14_7 2.582487 1_555
Ru12_7 Ti14_6 2.582487 1_555
Ru12_7 Ti6_6 2.879350 1_555
Ru12_7 Ti6_7 2.879350 1_555
Ru13_0 Ti15_0 2.582487 1_555
Ru13_0 Ti15_1 2.582487 1_554
Ru13_0 Ti7_0 2.879350 1_555
Ru13_0 Ti7_1 2.879350 1_554
Ru13_1 Ti15_0 2.582487 1_555
Ru13_1 Ti15_1 2.582487 1_555
Ru13_1 Ti7_0 2.879350 1_555
Ru13_1 Ti7_1 2.879350 1_555
Ru13_2 Ti15_3 2.582487 1_554
Ru13_2 Ti15_2 2.582487 1_555
Ru13_2 Ti7_2 2.879350 1_555
Ru13_2 Ti7_3 2.879350 1_554
Ru13_3 Ti15_3 2.582487 1_555
Ru13_3 Ti15_2 2.582487 1_555
Ru13_3 Ti7_2 2.879350 1_555
Ru13_3 Ti7_3 2.879350 1_555
Ru13_4 Ti15_4 2.582487 1_555
Ru13_4 Ti15_5 2.582487 1_554
Ru13_4 Ti7_5 2.879350 1_554
Ru13_4 Ti7_4 2.879350 1_555
Ru13_5 Ti15_4 2.582487 1_555
Ru13_5 Ti15_5 2.582487 1_555
Ru13_5 Ti7_4 2.879350 1_555
Ru13_5 Ti7_5 2.879350 1_555
Ru13_6 Ti15_6 2.582487 1_555
Ru13_6 Ti15_7 2.582487 1_554
Ru13_6 Ti7_6 2.879350 1_555
Ru13_6 Ti7_7 2.879350 1_554
Ru13_7 Ti15_6 2.582487 1_555
Ru13_7 Ti15_7 2.582487 1_555
Ru13_7 Ti7_6 2.879350 1_555
Ru13_7 Ti7_7 2.879350 1_555
Ru14_0 Ti16_1 2.582487 1_554
Ru14_0 Ti16_0 2.582487 1_555
Ru14_0 Ti8_1 2.879350 1_554
Ru14_0 Ti8_0 2.879350 1_555
Ru14_1 Ti16_0 2.582487 1_555
Ru14_1 Ti16_1 2.582487 1_555
Ru14_1 Ti8_1 2.879350 1_555
Ru14_1 Ti8_0 2.879350 1_555
Ru14_2 Ti16_2 2.582487 1_555
Ru14_2 Ti16_3 2.582487 1_554
Ru14_2 Ti8_2 2.879350 1_555
Ru14_2 Ti8_3 2.879350 1_554
Ru14_3 Ti16_3 2.582487 1_555
Ru14_3 Ti16_2 2.582487 1_555
Ru14_3 Ti8_2 2.879350 1_555
Ru14_3 Ti8_3 2.879350 1_555
Ru14_4 Ti16_5 2.582487 1_554
Ru14_4 Ti16_4 2.582487 1_555
Ru14_4 Ti8_5 2.879350 1_554
Ru14_4 Ti8_4 2.879350 1_555
Ru14_5 Ti16_5 2.582487 1_555
Ru14_5 Ti16_4 2.582487 1_555
Ru14_5 Ti8_5 2.879350 1_555
Ru14_5 Ti8_4 2.879350 1_555
Ru14_6 Ti16_7 2.582487 1_554
Ru14_6 Ti16_6 2.582487 1_555
Ru14_6 Ti8_6 2.879350 1_555
Ru14_6 Ti8_7 2.879350 1_554
Ru14_7 Ti16_7 2.582487 1_555
Ru14_7 Ti16_6 2.582487 1_555
Ru14_7 Ti8_7 2.879350 1_555
Ru14_7 Ti8_6 2.879350 1_555
Ru15_0 Ti17_1 2.582487 1_554
Ru15_0 Ti17_0 2.582487 1_555
Ru15_0 Ti9_1 2.879350 1_554
Ru15_0 Ti9_0 2.879350 1_555
Ru15_1 Ti17_0 2.582487 1_555
Ru15_1 Ti17_1 2.582487 1_555
Ru15_1 Ti9_0 2.879350 1_555
Ru15_1 Ti9_1 2.879350 1_555
Ru15_2 Ti17_2 2.582487 1_555
Ru15_2 Ti17_3 2.582487 1_554
Ru15_2 Ti9_3 2.879350 1_554
Ru15_2 Ti9_2 2.879350 1_555
Ru15_3 Ti17_2 2.582487 1_555
Ru15_3 Ti17_3 2.582487 1_555
Ru15_3 Ti9_3 2.879350 1_555
Ru15_3 Ti9_2 2.879350 1_555
Ru15_4 Ti17_5 2.582487 1_554
Ru15_4 Ti17_4 2.582487 1_555
Ru15_4 Ti9_5 2.879350 1_554
Ru15_4 Ti9_4 2.879350 1_555
Ru15_5 Ti17_4 2.582487 1_555
Ru15_5 Ti17_5 2.582487 1_555
Ru15_5 Ti9_4 2.879350 1_555
Ru15_5 Ti9_5 2.879350 1_555
Ru15_6 Ti17_6 2.582487 1_555
Ru15_6 Ti17_7 2.582487 1_554
Ru15_6 Ti9_7 2.879350 1_554
Ru15_6 Ti9_6 2.879350 1_555
Ru15_7 Ti17_6 2.582487 1_555
Ru15_7 Ti17_7 2.582487 1_555
Ru15_7 Ti9_6 2.879350 1_555
Ru15_7 Ti9_7 2.879350 1_555
Ru16_0 Ti16_0 2.582487 1_555
Ru16_0 Ti16_1 2.582487 1_554
Ru16_0 Ti10_1 2.879350 1_554
Ru16_0 Ti10_0 2.879350 1_555
Ru16_1 Ti16_0 2.582487 1_555
Ru16_1 Ti16_1 2.582487 1_555
Ru16_1 Ti10_0 2.879350 1_555
Ru16_1 Ti10_1 2.879350 1_555
Ru16_2 Ti16_2 2.582487 1_555
Ru16_2 Ti16_3 2.582487 1_554
Ru16_2 Ti10_2 2.879350 1_555
Ru16_2 Ti10_3 2.879350 1_554
Ru16_3 Ti16_3 2.582487 1_555
Ru16_3 Ti16_2 2.582487 1_555
Ru16_3 Ti10_2 2.879350 1_555
Ru16_3 Ti10_3 2.879350 1_555
Ru16_4 Ti16_5 2.582487 1_554
Ru16_4 Ti16_4 2.582487 1_555
Ru16_4 Ti10_4 2.879350 1_555
Ru16_4 Ti10_5 2.879350 1_554
Ru16_5 Ti16_5 2.582487 1_555
Ru16_5 Ti16_4 2.582487 1_555
Ru16_5 Ti10_5 2.879350 1_555
Ru16_5 Ti10_4 2.879350 1_555
Ru16_6 Ti16_7 2.582487 1_554
Ru16_6 Ti16_6 2.582487 1_555
Ru16_6 Ti10_7 2.879350 1_554
Ru16_6 Ti10_6 2.879350 1_555
Ru16_7 Ti16_7 2.582487 1_555
Ru16_7 Ti16_6 2.582487 1_555
Ru16_7 Ti10_7 2.879350 1_555
Ru16_7 Ti10_6 2.879350 1_555
Ru17_0 Ti17_1 2.582487 1_554
Ru17_0 Ti17_0 2.582487 1_555
Ru17_0 Ti11_1 2.879350 1_554
Ru17_0 Ti11_0 2.879350 1_555
Ru17_1 Ti17_1 2.582487 1_555
Ru17_1 Ti17_0 2.582487 1_555
Ru17_1 Ti11_1 2.879350 1_555
Ru17_1 Ti11_0 2.879350 1_555
Ru17_2 Ti17_3 2.582487 1_554
Ru17_2 Ti17_2 2.582487 1_555
Ru17_2 Ti11_3 2.879350 1_554
Ru17_2 Ti11_2 2.879350 1_555
Ru17_3 Ti17_3 2.582487 1_555
Ru17_3 Ti17_2 2.582487 1_555
Ru17_3 Ti11_3 2.879350 1_555
Ru17_3 Ti11_2 2.879350 1_555
Ru17_4 Ti17_4 2.582487 1_555
Ru17_4 Ti17_5 2.582487 1_554
Ru17_4 Ti11_4 2.879350 1_555
Ru17_4 Ti11_5 2.879350 1_554
Ru17_5 Ti17_4 2.582487 1_555
Ru17_5 Ti17_5 2.582487 1_555
Ru17_5 Ti11_5 2.879350 1_555
Ru17_5 Ti11_4 2.879350 1_555
Ru17_6 Ti17_7 2.582487 1_554
Ru17_6 Ti17_6 2.582487 1_555
Ru17_6 Ti11_6 2.879350 1_555
Ru17_6 Ti11_7 2.879350 1_554
Ru17_7 Ti17_7 2.582487 1_555
Ru17_7 Ti17_6 2.582487 1_555
Ru17_7 Ti11_7 2.879350 1_555
Ru17_7 Ti11_6 2.879350 1_555
Ru18_0 Ti15_1 2.582487 1_554
Ru18_0 Ti15_0 2.582487 1_555
Ru18_0 Ti12_0 2.879350 1_555
Ru18_0 Ti12_1 2.879350 1_554
Ru18_1 Ti15_1 2.582487 1_555
Ru18_1 Ti15_0 2.582487 1_555
Ru18_1 Ti12_0 2.879350 1_555
Ru18_1 Ti12_1 2.879350 1_555
Ru18_2 Ti15_2 2.582487 1_555
Ru18_2 Ti15_3 2.582487 1_554
Ru18_2 Ti12_3 2.879350 1_554
Ru18_2 Ti12_2 2.879350 1_555
Ru18_3 Ti15_2 2.582487 1_555
Ru18_3 Ti15_3 2.582487 1_555
Ru18_3 Ti12_2 2.879350 1_555
Ru18_3 Ti12_3 2.879350 1_555
Ru18_4 Ti15_4 2.582487 1_555
Ru18_4 Ti15_5 2.582487 1_554
Ru18_4 Ti12_4 2.879350 1_555
Ru18_4 Ti12_5 2.879350 1_554
Ru18_5 Ti15_4 2.582487 1_555
Ru18_5 Ti15_5 2.582487 1_555
Ru18_5 Ti12_4 2.879350 1_555
Ru18_5 Ti12_5 2.879350 1_555
Ru18_6 Ti15_7 2.582487 1_554
Ru18_6 Ti15_6 2.582487 1_555
Ru18_6 Ti12_7 2.879350 1_554
Ru18_6 Ti12_6 2.879350 1_555
Ru18_7 Ti15_7 2.582487 1_555
Ru18_7 Ti15_6 2.582487 1_555
Ru18_7 Ti12_7 2.879350 1_555
Ru18_7 Ti12_6 2.879350 1_555
Ru19_0 Ti14_1 2.582487 1_554
Ru19_0 Ti14_0 2.582487 1_555
Ru19_0 Ti13_1 2.879350 1_554
Ru19_0 Ti13_0 2.879350 1_555
Ru19_1 Ti14_1 2.582487 1_555
Ru19_1 Ti14_0 2.582487 1_555
Ru19_1 Ti13_0 2.879350 1_555
Ru19_1 Ti13_1 2.879350 1_555
Ru19_2 Ti14_3 2.582487 1_554
Ru19_2 Ti14_2 2.582487 1_555
Ru19_2 Ti13_3 2.879350 1_554
Ru19_2 Ti13_2 2.879350 1_555
Ru19_3 Ti14_3 2.582487 1_555
Ru19_3 Ti14_2 2.582487 1_555
Ru19_3 Ti13_3 2.879350 1_555
Ru19_3 Ti13_2 2.879350 1_555
Ru19_4 Ti14_4 2.582487 1_555
Ru19_4 Ti14_5 2.582487 1_554
Ru19_4 Ti13_4 2.879350 1_555
Ru19_4 Ti13_5 2.879350 1_554
Ru19_5 Ti14_4 2.582487 1_555
Ru19_5 Ti14_5 2.582487 1_555
Ru19_5 Ti13_4 2.879350 1_555
Ru19_5 Ti13_5 2.879350 1_555
Ru19_6 Ti14_6 2.582487 1_555
Ru19_6 Ti14_7 2.582487 1_554
Ru19_6 Ti13_6 2.879350 1_555
Ru19_6 Ti13_7 2.879350 1_554
Ru19_7 Ti14_6 2.582487 1_555
Ru19_7 Ti14_7 2.582487 1_555
Ru19_7 Ti13_6 2.879350 1_555
Ru19_7 Ti13_7 2.879350 1_555
Ru20_0 Ti17_1 2.563354 1_554
Ru20_0 Ti17_0 2.563354 1_555
Ru20_0 Ti0_0 2.824295 1_555
Ru20_0 Ti0_1 2.824295 1_554
Ru20_0 Ti11_0 2.824597 1_555
Ru20_0 Ti11_1 2.824597 1_554
Ru20_1 Ti17_0 2.563354 1_555
Ru20_1 Ti17_1 2.563354 1_555
Ru20_1 Ti0_0 2.824295 1_555
Ru20_1 Ti0_1 2.824295 1_555
Ru20_1 Ti11_0 2.824597 1_555
Ru20_1 Ti11_1 2.824597 1_555
Ru20_2 Ti17_2 2.563354 1_555
Ru20_2 Ti17_3 2.563354 1_554
Ru20_2 Ti0_2 2.824295 1_555
Ru20_2 Ti0_3 2.824295 1_554
Ru20_2 Ti11_2 2.824597 1_555
Ru20_2 Ti11_3 2.824597 1_554
Ru20_3 Ti17_2 2.563354 1_555
Ru20_3 Ti17_3 2.563354 1_555
Ru20_3 Ti0_3 2.824295 1_555
Ru20_3 Ti0_2 2.824295 1_555
Ru20_3 Ti11_2 2.824597 1_555
Ru20_3 Ti11_3 2.824597 1_555
Ru20_4 Ti17_5 2.563354 1_554
Ru20_4 Ti17_4 2.563354 1_555
Ru20_4 Ti0_4 2.824295 1_555
Ru20_4 Ti0_5 2.824295 1_554
Ru20_4 Ti11_5 2.824597 1_554
Ru20_4 Ti11_4 2.824597 1_555
Ru20_5 Ti17_5 2.563354 1_555
Ru20_5 Ti17_4 2.563354 1_555
Ru20_5 Ti0_4 2.824295 1_555
Ru20_5 Ti0_5 2.824295 1_555
Ru20_5 Ti11_5 2.824597 1_555
Ru20_5 Ti11_4 2.824597 1_555
Ru20_6 Ti17_6 2.563354 1_555
Ru20_6 Ti17_7 2.563354 1_554
Ru20_6 Ti0_6 2.824295 1_555
Ru20_6 Ti0_7 2.824295 1_554
Ru20_6 Ti11_6 2.824597 1_555
Ru20_6 Ti11_7 2.824597 1_554
Ru20_7 Ti17_6 2.563354 1_555
Ru20_7 Ti17_7 2.563354 1_555
Ru20_7 Ti0_7 2.824295 1_555
Ru20_7 Ti0_6 2.824295 1_555
Ru20_7 Ti11_6 2.824597 1_555
Ru20_7 Ti11_7 2.824597 1_555
Ru21_0 Ti16_1 2.563354 1_554
Ru21_0 Ti16_0 2.563354 1_555
Ru21_0 Ti1_0 2.824295 1_555
Ru21_0 Ti1_1 2.824295 1_554
Ru21_0 Ti10_0 2.824597 1_555
Ru21_0 Ti10_1 2.824597 1_554
Ru21_1 Ti16_1 2.563354 1_555
Ru21_1 Ti16_0 2.563354 1_555
Ru21_1 Ti1_1 2.824295 1_555
Ru21_1 Ti1_0 2.824295 1_555
Ru21_1 Ti10_0 2.824597 1_555
Ru21_1 Ti10_1 2.824597 1_555
Ru21_2 Ti16_3 2.563354 1_554
Ru21_2 Ti16_2 2.563354 1_555
Ru21_2 Ti1_3 2.824295 1_554
Ru21_2 Ti1_2 2.824295 1_555
Ru21_2 Ti10_3 2.824597 1_554
Ru21_2 Ti10_2 2.824597 1_555
Ru21_3 Ti16_3 2.563354 1_555
Ru21_3 Ti16_2 2.563354 1_555
Ru21_3 Ti1_2 2.824295 1_555
Ru21_3 Ti1_3 2.824295 1_555
Ru21_3 Ti10_2 2.824597 1_555
Ru21_3 Ti10_3 2.824597 1_555
Ru21_4 Ti16_4 2.563354 1_555
Ru21_4 Ti16_5 2.563354 1_554
Ru21_4 Ti1_5 2.824295 1_554
Ru21_4 Ti1_4 2.824295 1_555
Ru21_4 Ti10_4 2.824597 1_555
Ru21_4 Ti10_5 2.824597 1_554
Ru21_5 Ti16_4 2.563354 1_555
Ru21_5 Ti16_5 2.563354 1_555
Ru21_5 Ti1_5 2.824295 1_555
Ru21_5 Ti1_4 2.824295 1_555
Ru21_5 Ti10_5 2.824597 1_555
Ru21_5 Ti10_4 2.824597 1_555
Ru21_6 Ti16_6 2.563354 1_555
Ru21_6 Ti16_7 2.563354 1_554
Ru21_6 Ti1_7 2.824295 1_554
Ru21_6 Ti1_6 2.824295 1_555
Ru21_6 Ti10_7 2.824597 1_554
Ru21_6 Ti10_6 2.824597 1_555
Ru21_7 Ti16_6 2.563354 1_555
Ru21_7 Ti16_7 2.563354 1_555
Ru21_7 Ti1_7 2.824295 1_555
Ru21_7 Ti1_6 2.824295 1_555
Ru21_7 Ti10_7 2.824597 1_555
Ru21_7 Ti10_6 2.824597 1_555
Ru22_0 Ti15_1 2.563354 1_554
Ru22_0 Ti15_0 2.563354 1_555
Ru22_0 Ti2_0 2.824295 1_555
Ru22_0 Ti2_1 2.824295 1_554
Ru22_0 Ti12_1 2.824597 1_554
Ru22_0 Ti12_0 2.824597 1_555
Ru22_1 Ti15_1 2.563354 1_555
Ru22_1 Ti15_0 2.563354 1_555
Ru22_1 Ti2_0 2.824295 1_555
Ru22_1 Ti2_1 2.824295 1_555
Ru22_1 Ti12_1 2.824597 1_555
Ru22_1 Ti12_0 2.824597 1_555
Ru22_2 Ti15_2 2.563354 1_555
Ru22_2 Ti15_3 2.563354 1_554
Ru22_2 Ti2_3 2.824295 1_554
Ru22_2 Ti2_2 2.824295 1_555
Ru22_2 Ti12_2 2.824597 1_555
Ru22_2 Ti12_3 2.824597 1_554
Ru22_3 Ti15_2 2.563354 1_555
Ru22_3 Ti15_3 2.563354 1_555
Ru22_3 Ti2_3 2.824295 1_555
Ru22_3 Ti2_2 2.824295 1_555
Ru22_3 Ti12_2 2.824597 1_555
Ru22_3 Ti12_3 2.824597 1_555
Ru22_4 Ti15_5 2.563354 1_554
Ru22_4 Ti15_4 2.563354 1_555
Ru22_4 Ti2_4 2.824295 1_555
Ru22_4 Ti2_5 2.824295 1_554
Ru22_4 Ti12_4 2.824597 1_555
Ru22_4 Ti12_5 2.824597 1_554
Ru22_5 Ti15_4 2.563354 1_555
Ru22_5 Ti15_5 2.563354 1_555
Ru22_5 Ti2_4 2.824295 1_555
Ru22_5 Ti2_5 2.824295 1_555
Ru22_5 Ti12_4 2.824597 1_555
Ru22_5 Ti12_5 2.824597 1_555
Ru22_6 Ti15_7 2.563354 1_554
Ru22_6 Ti15_6 2.563354 1_555
Ru22_6 Ti2_6 2.824295 1_555
Ru22_6 Ti2_7 2.824295 1_554
Ru22_6 Ti12_6 2.824597 1_555
Ru22_6 Ti12_7 2.824597 1_554
Ru22_7 Ti15_7 2.563354 1_555
Ru22_7 Ti15_6 2.563354 1_555
Ru22_7 Ti2_6 2.824295 1_555
Ru22_7 Ti2_7 2.824295 1_555
Ru22_7 Ti12_6 2.824597 1_555
Ru22_7 Ti12_7 2.824597 1_555
Ru23_0 Ti14_0 2.563354 1_555
Ru23_0 Ti14_1 2.563354 1_554
Ru23_0 Ti3_1 2.824295 1_554
Ru23_0 Ti3_0 2.824295 1_555
Ru23_0 Ti13_1 2.824597 1_554
Ru23_0 Ti13_0 2.824597 1_555
Ru23_1 Ti14_1 2.563354 1_555
Ru23_1 Ti14_0 2.563354 1_555
Ru23_1 Ti3_1 2.824295 1_555
Ru23_1 Ti3_0 2.824295 1_555
Ru23_1 Ti13_1 2.824597 1_555
Ru23_1 Ti13_0 2.824597 1_555
Ru23_2 Ti14_3 2.563354 1_554
Ru23_2 Ti14_2 2.563354 1_555
Ru23_2 Ti3_3 2.824295 1_554
Ru23_2 Ti3_2 2.824295 1_555
Ru23_2 Ti13_2 2.824597 1_555
Ru23_2 Ti13_3 2.824597 1_554
Ru23_3 Ti14_3 2.563354 1_555
Ru23_3 Ti14_2 2.563354 1_555
Ru23_3 Ti3_2 2.824295 1_555
Ru23_3 Ti3_3 2.824295 1_555
Ru23_3 Ti13_2 2.824597 1_555
Ru23_3 Ti13_3 2.824597 1_555
Ru23_4 Ti14_4 2.563354 1_555
Ru23_4 Ti14_5 2.563354 1_554
Ru23_4 Ti3_4 2.824295 1_555
Ru23_4 Ti3_5 2.824295 1_554
Ru23_4 Ti13_5 2.824597 1_554
Ru23_4 Ti13_4 2.824597 1_555
Ru23_5 Ti14_4 2.563354 1_555
Ru23_5 Ti14_5 2.563354 1_555
Ru23_5 Ti3_4 2.824295 1_555
Ru23_5 Ti3_5 2.824295 1_555
Ru23_5 Ti13_4 2.824597 1_555
Ru23_5 Ti13_5 2.824597 1_555
Ru23_6 Ti14_6 2.563354 1_555
Ru23_6 Ti14_7 2.563354 1_554
Ru23_6 Ti3_7 2.824295 1_554
Ru23_6 Ti3_6 2.824295 1_555
Ru23_6 Ti13_7 2.824597 1_554
Ru23_6 Ti13_6 2.824597 1_555
Ru23_7 Ti14_7 2.563354 1_555
Ru23_7 Ti14_6 2.563354 1_555
Ru23_7 Ti3_7 2.824295 1_555
Ru23_7 Ti3_6 2.824295 1_555
Ru23_7 Ti13_7 2.824597 1_555
Ru23_7 Ti13_6 2.824597 1_555
Ru24_0 Ti14_0 2.563354 1_555
Ru24_0 Ti14_1 2.563354 1_554
Ru24_0 Ti3_0 2.824295 1_555
Ru24_0 Ti3_1 2.824295 1_554
Ru24_0 Ti6_0 2.824597 1_555
Ru24_0 Ti6_1 2.824597 1_554
Ru24_1 Ti14_1 2.563354 1_555
Ru24_1 Ti14_0 2.563354 1_555
Ru24_1 Ti3_0 2.824295 1_555
Ru24_1 Ti3_1 2.824295 1_555
Ru24_1 Ti6_0 2.824597 1_555
Ru24_1 Ti6_1 2.824597 1_555
Ru24_2 Ti14_3 2.563354 1_554
Ru24_2 Ti14_2 2.563354 1_555
Ru24_2 Ti3_3 2.824295 1_554
Ru24_2 Ti3_2 2.824295 1_555
Ru24_2 Ti6_3 2.824597 1_554
Ru24_2 Ti6_2 2.824597 1_555
Ru24_3 Ti14_3 2.563354 1_555
Ru24_3 Ti14_2 2.563354 1_555
Ru24_3 Ti3_3 2.824295 1_555
Ru24_3 Ti3_2 2.824295 1_555
Ru24_3 Ti6_2 2.824597 1_555
Ru24_3 Ti6_3 2.824597 1_555
Ru24_4 Ti14_5 2.563354 1_554
Ru24_4 Ti14_4 2.563354 1_555
Ru24_4 Ti3_5 2.824295 1_554
Ru24_4 Ti3_4 2.824295 1_555
Ru24_4 Ti6_4 2.824597 1_555
Ru24_4 Ti6_5 2.824597 1_554
Ru24_5 Ti14_5 2.563354 1_555
Ru24_5 Ti14_4 2.563354 1_555
Ru24_5 Ti3_4 2.824295 1_555
Ru24_5 Ti3_5 2.824295 1_555
Ru24_5 Ti6_4 2.824597 1_555
Ru24_5 Ti6_5 2.824597 1_555
Ru24_6 Ti14_6 2.563354 1_555
Ru24_6 Ti14_7 2.563354 1_554
Ru24_6 Ti3_6 2.824295 1_555
Ru24_6 Ti3_7 2.824295 1_554
Ru24_6 Ti6_7 2.824597 1_554
Ru24_6 Ti6_6 2.824597 1_555
Ru24_7 Ti14_7 2.563354 1_555
Ru24_7 Ti14_6 2.563354 1_555
Ru24_7 Ti3_6 2.824295 1_555
Ru24_7 Ti3_7 2.824295 1_555
Ru24_7 Ti6_6 2.824597 1_555
Ru24_7 Ti6_7 2.824597 1_555
Ru25_0 Ti15_1 2.563354 1_554
Ru25_0 Ti15_0 2.563354 1_555
Ru25_0 Ti2_0 2.824295 1_555
Ru25_0 Ti2_1 2.824295 1_554
Ru25_0 Ti7_1 2.824597 1_554
Ru25_0 Ti7_0 2.824597 1_555
Ru25_1 Ti15_0 2.563354 1_555
Ru25_1 Ti15_1 2.563354 1_555
Ru25_1 Ti2_0 2.824295 1_555
Ru25_1 Ti2_1 2.824295 1_555
Ru25_1 Ti7_0 2.824597 1_555
Ru25_1 Ti7_1 2.824597 1_555
Ru25_2 Ti15_3 2.563354 1_554
Ru25_2 Ti15_2 2.563354 1_555
Ru25_2 Ti2_3 2.824295 1_554
Ru25_2 Ti2_2 2.824295 1_555
Ru25_2 Ti7_3 2.824597 1_554
Ru25_2 Ti7_2 2.824597 1_555
Ru25_3 Ti15_2 2.563354 1_555
Ru25_3 Ti15_3 2.563354 1_555
Ru25_3 Ti2_2 2.824295 1_555
Ru25_3 Ti2_3 2.824295 1_555
Ru25_3 Ti7_3 2.824597 1_555
Ru25_3 Ti7_2 2.824597 1_555
Ru25_4 Ti15_4 2.563354 1_555
Ru25_4 Ti15_5 2.563354 1_554
Ru25_4 Ti2_5 2.824295 1_554
Ru25_4 Ti2_4 2.824295 1_555
Ru25_4 Ti7_5 2.824597 1_554
Ru25_4 Ti7_4 2.824597 1_555
Ru25_5 Ti15_5 2.563354 1_555
Ru25_5 Ti15_4 2.563354 1_555
Ru25_5 Ti2_4 2.824295 1_555
Ru25_5 Ti2_5 2.824295 1_555
Ru25_5 Ti7_4 2.824597 1_555
Ru25_5 Ti7_5 2.824597 1_555
Ru25_6 Ti15_7 2.563354 1_554
Ru25_6 Ti15_6 2.563354 1_555
Ru25_6 Ti2_7 2.824295 1_554
Ru25_6 Ti2_6 2.824295 1_555
Ru25_6 Ti7_6 2.824597 1_555
Ru25_6 Ti7_7 2.824597 1_554
Ru25_7 Ti15_7 2.563354 1_555
Ru25_7 Ti15_6 2.563354 1_555
Ru25_7 Ti2_7 2.824295 1_555
Ru25_7 Ti2_6 2.824295 1_555
Ru25_7 Ti7_6 2.824597 1_555
Ru25_7 Ti7_7 2.824597 1_555
Ru26_0 Ti17_1 2.563354 1_554
Ru26_0 Ti17_0 2.563354 1_555
Ru26_0 Ti0_0 2.824295 1_555
Ru26_0 Ti0_1 2.824295 1_554
Ru26_0 Ti9_0 2.824597 1_555
Ru26_0 Ti9_1 2.824597 1_554
Ru26_1 Ti17_0 2.563354 1_555
Ru26_1 Ti17_1 2.563354 1_555
Ru26_1 Ti0_0 2.824295 1_555
Ru26_1 Ti0_1 2.824295 1_555
Ru26_1 Ti9_1 2.824597 1_555
Ru26_1 Ti9_0 2.824597 1_555
Ru26_2 Ti17_3 2.563354 1_554
Ru26_2 Ti17_2 2.563354 1_555
Ru26_2 Ti0_2 2.824295 1_555
Ru26_2 Ti0_3 2.824295 1_554
Ru26_2 Ti9_2 2.824597 1_555
Ru26_2 Ti9_3 2.824597 1_554
Ru26_3 Ti17_3 2.563354 1_555
Ru26_3 Ti17_2 2.563354 1_555
Ru26_3 Ti0_3 2.824295 1_555
Ru26_3 Ti0_2 2.824295 1_555
Ru26_3 Ti9_2 2.824597 1_555
Ru26_3 Ti9_3 2.824597 1_555
Ru26_4 Ti17_5 2.563354 1_554
Ru26_4 Ti17_4 2.563354 1_555
Ru26_4 Ti0_4 2.824295 1_555
Ru26_4 Ti0_5 2.824295 1_554
Ru26_4 Ti9_5 2.824597 1_554
Ru26_4 Ti9_4 2.824597 1_555
Ru26_5 Ti17_5 2.563354 1_555
Ru26_5 Ti17_4 2.563354 1_555
Ru26_5 Ti0_4 2.824295 1_555
Ru26_5 Ti0_5 2.824295 1_555
Ru26_5 Ti9_4 2.824597 1_555
Ru26_5 Ti9_5 2.824597 1_555
Ru26_6 Ti17_6 2.563354 1_555
Ru26_6 Ti17_7 2.563354 1_554
Ru26_6 Ti0_6 2.824295 1_555
Ru26_6 Ti0_7 2.824295 1_554
Ru26_6 Ti9_7 2.824597 1_554
Ru26_6 Ti9_6 2.824597 1_555
Ru26_7 Ti17_6 2.563354 1_555
Ru26_7 Ti17_7 2.563354 1_555
Ru26_7 Ti0_7 2.824295 1_555
Ru26_7 Ti0_6 2.824295 1_555
Ru26_7 Ti9_6 2.824597 1_555
Ru26_7 Ti9_7 2.824597 1_555
Ru27_0 Ti16_1 2.563354 1_554
Ru27_0 Ti16_0 2.563354 1_555
Ru27_0 Ti1_0 2.824295 1_555
Ru27_0 Ti1_1 2.824295 1_554
Ru27_0 Ti8_1 2.824597 1_554
Ru27_0 Ti8_0 2.824597 1_555
Ru27_1 Ti16_0 2.563354 1_555
Ru27_1 Ti16_1 2.563354 1_555
Ru27_1 Ti1_0 2.824295 1_555
Ru27_1 Ti1_1 2.824295 1_555
Ru27_1 Ti8_1 2.824597 1_555
Ru27_1 Ti8_0 2.824597 1_555
Ru27_2 Ti16_2 2.563354 1_555
Ru27_2 Ti16_3 2.563354 1_554
Ru27_2 Ti1_2 2.824295 1_555
Ru27_2 Ti1_3 2.824295 1_554
Ru27_2 Ti8_3 2.824597 1_554
Ru27_2 Ti8_2 2.824597 1_555
Ru27_3 Ti16_3 2.563354 1_555
Ru27_3 Ti16_2 2.563354 1_555
Ru27_3 Ti1_2 2.824295 1_555
Ru27_3 Ti1_3 2.824295 1_555
Ru27_3 Ti8_2 2.824597 1_555
Ru27_3 Ti8_3 2.824597 1_555
Ru27_4 Ti16_4 2.563354 1_555
Ru27_4 Ti16_5 2.563354 1_554
Ru27_4 Ti1_4 2.824295 1_555
Ru27_4 Ti1_5 2.824295 1_554
Ru27_4 Ti8_5 2.824597 1_554
Ru27_4 Ti8_4 2.824597 1_555
Ru27_5 Ti16_4 2.563354 1_555
Ru27_5 Ti16_5 2.563354 1_555
Ru27_5 Ti1_5 2.824295 1_555
Ru27_5 Ti1_4 2.824295 1_555
Ru27_5 Ti8_4 2.824597 1_555
Ru27_5 Ti8_5 2.824597 1_555
Ru27_6 Ti16_7 2.563354 1_554
Ru27_6 Ti16_6 2.563354 1_555
Ru27_6 Ti1_7 2.824295 1_554
Ru27_6 Ti1_6 2.824295 1_555
Ru27_6 Ti8_6 2.824597 1_555
Ru27_6 Ti8_7 2.824597 1_554
Ru27_7 Ti16_7 2.563354 1_555
Ru27_7 Ti16_6 2.563354 1_555
Ru27_7 Ti1_6 2.824295 1_555
Ru27_7 Ti1_7 2.824295 1_555
Ru27_7 Ti8_7 2.824597 1_555
Ru27_7 Ti8_6 2.824597 1_555
Ru28_0 Ti4_1 2.589478 1_554
Ru28_0 Ti4_0 2.589478 1_555
Ru28_0 Ti11_0 2.786754 1_555
Ru28_0 Ti11_1 2.786754 1_554
Ru28_0 Ti6_1 2.865798 1_554
Ru28_0 Ti6_0 2.865798 1_555
Ru28_1 Ti4_1 2.589478 1_555
Ru28_1 Ti4_0 2.589478 1_555
Ru28_1 Ti11_0 2.786754 1_555
Ru28_1 Ti11_1 2.786754 1_555
Ru28_1 Ti6_1 2.865798 1_555
Ru28_1 Ti6_0 2.865798 1_555
Ru28_2 Ti4_3 2.589478 1_554
Ru28_2 Ti4_2 2.589478 1_555
Ru28_2 Ti11_2 2.786754 1_555
Ru28_2 Ti11_3 2.786754 1_554
Ru28_2 Ti6_3 2.865798 1_554
Ru28_2 Ti6_2 2.865798 1_555
Ru28_3 Ti4_2 2.589478 1_555
Ru28_3 Ti4_3 2.589478 1_555
Ru28_3 Ti11_2 2.786754 1_555
Ru28_3 Ti11_3 2.786754 1_555
Ru28_3 Ti6_2 2.865798 1_555
Ru28_3 Ti6_3 2.865798 1_555
Ru28_4 Ti4_4 2.589478 1_555
Ru28_4 Ti4_5 2.589478 1_554
Ru28_4 Ti11_5 2.786754 1_554
Ru28_4 Ti11_4 2.786754 1_555
Ru28_4 Ti6_4 2.865798 1_555
Ru28_4 Ti6_5 2.865798 1_554
Ru28_5 Ti4_4 2.589478 1_555
Ru28_5 Ti4_5 2.589478 1_555
Ru28_5 Ti11_5 2.786754 1_555
Ru28_5 Ti11_4 2.786754 1_555
Ru28_5 Ti6_4 2.865798 1_555
Ru28_5 Ti6_5 2.865798 1_555
Ru28_6 Ti4_7 2.589478 1_554
Ru28_6 Ti4_6 2.589478 1_555
Ru28_6 Ti11_6 2.786754 1_555
Ru28_6 Ti11_7 2.786754 1_554
Ru28_6 Ti6_7 2.865798 1_554
Ru28_6 Ti6_6 2.865798 1_555
Ru28_7 Ti4_6 2.589478 1_555
Ru28_7 Ti4_7 2.589478 1_555
Ru28_7 Ti11_7 2.786754 1_555
Ru28_7 Ti11_6 2.786754 1_555
Ru28_7 Ti6_6 2.865798 1_555
Ru28_7 Ti6_7 2.865798 1_555
Ru29_0 Ti4_1 2.589478 1_554
Ru29_0 Ti4_0 2.589478 1_555
Ru29_0 Ti10_0 2.786754 1_555
Ru29_0 Ti10_1 2.786754 1_554
Ru29_0 Ti7_1 2.865798 1_554
Ru29_0 Ti7_0 2.865798 1_555
Ru29_1 Ti4_1 2.589478 1_555
Ru29_1 Ti4_0 2.589478 1_555
Ru29_1 Ti10_0 2.786754 1_555
Ru29_1 Ti10_1 2.786754 1_555
Ru29_1 Ti7_1 2.865798 1_555
Ru29_1 Ti7_0 2.865798 1_555
Ru29_2 Ti4_2 2.589478 1_555
Ru29_2 Ti4_3 2.589478 1_554
Ru29_2 Ti10_2 2.786754 1_555
Ru29_2 Ti10_3 2.786754 1_554
Ru29_2 Ti7_2 2.865798 1_555
Ru29_2 Ti7_3 2.865798 1_554
Ru29_3 Ti4_2 2.589478 1_555
Ru29_3 Ti4_3 2.589478 1_555
Ru29_3 Ti10_2 2.786754 1_555
Ru29_3 Ti10_3 2.786754 1_555
Ru29_3 Ti7_2 2.865798 1_555
Ru29_3 Ti7_3 2.865798 1_555
Ru29_4 Ti4_5 2.589478 1_554
Ru29_4 Ti4_4 2.589478 1_555
Ru29_4 Ti10_5 2.786754 1_554
Ru29_4 Ti10_4 2.786754 1_555
Ru29_4 Ti7_5 2.865798 1_554
Ru29_4 Ti7_4 2.865798 1_555
Ru29_5 Ti4_5 2.589478 1_555
Ru29_5 Ti4_4 2.589478 1_555
Ru29_5 Ti10_5 2.786754 1_555
Ru29_5 Ti10_4 2.786754 1_555
Ru29_5 Ti7_4 2.865798 1_555
Ru29_5 Ti7_5 2.865798 1_555
Ru29_6 Ti4_6 2.589478 1_555
Ru29_6 Ti4_7 2.589478 1_554
Ru29_6 Ti10_7 2.786754 1_554
Ru29_6 Ti10_6 2.786754 1_555
Ru29_6 Ti7_7 2.865798 1_554
Ru29_6 Ti7_6 2.865798 1_555
Ru29_7 Ti4_6 2.589478 1_555
Ru29_7 Ti4_7 2.589478 1_555
Ru29_7 Ti10_7 2.786754 1_555
Ru29_7 Ti10_6 2.786754 1_555
Ru29_7 Ti7_6 2.865798 1_555
Ru29_7 Ti7_7 2.865798 1_555
Ru30_0 Ti5_0 2.589478 1_555
Ru30_0 Ti5_1 2.589478 1_554
Ru30_0 Ti12_0 2.786754 1_555
Ru30_0 Ti12_1 2.786754 1_554
Ru30_0 Ti8_2 2.865798 1_545
Ru30_0 Ti8_3 2.865798 1_544
Ru30_1 Ti5_0 2.589478 1_555
Ru30_1 Ti5_1 2.589478 1_555
Ru30_1 Ti12_0 2.786754 1_555
Ru30_1 Ti12_1 2.786754 1_555
Ru30_1 Ti8_3 2.865798 1_545
Ru30_1 Ti8_2 2.865798 1_545
Ru30_2 Ti5_3 2.589478 1_554
Ru30_2 Ti5_2 2.589478 1_555
Ru30_2 Ti12_3 2.786754 1_554
Ru30_2 Ti12_2 2.786754 1_555
Ru30_2 Ti8_1 2.865798 1_554
Ru30_2 Ti8_0 2.865798 1_555
Ru30_3 Ti5_3 2.589478 1_555
Ru30_3 Ti5_2 2.589478 1_555
Ru30_3 Ti12_3 2.786754 1_555
Ru30_3 Ti12_2 2.786754 1_555
Ru30_3 Ti8_1 2.865798 1_555
Ru30_3 Ti8_0 2.865798 1_555
Ru30_4 Ti5_5 2.589478 1_554
Ru30_4 Ti5_4 2.589478 1_555
Ru30_4 Ti12_5 2.786754 1_554
Ru30_4 Ti12_4 2.786754 1_555
Ru30_4 Ti8_7 2.865798 1_544
Ru30_4 Ti8_6 2.865798 1_545
Ru30_5 Ti5_4 2.589478 1_555
Ru30_5 Ti5_5 2.589478 1_555
Ru30_5 Ti12_4 2.786754 1_555
Ru30_5 Ti12_5 2.786754 1_555
Ru30_5 Ti8_6 2.865798 1_545
Ru30_5 Ti8_7 2.865798 1_545
Ru30_6 Ti5_6 2.589478 1_555
Ru30_6 Ti5_7 2.589478 1_554
Ru30_6 Ti12_7 2.786754 1_554
Ru30_6 Ti12_6 2.786754 1_555
Ru30_6 Ti8_4 2.865798 1_555
Ru30_6 Ti8_5 2.865798 1_554
Ru30_7 Ti5_6 2.589478 1_555
Ru30_7 Ti5_7 2.589478 1_555
Ru30_7 Ti12_7 2.786754 1_555
Ru30_7 Ti12_6 2.786754 1_555
Ru30_7 Ti8_5 2.865798 1_555
Ru30_7 Ti8_4 2.865798 1_555
Ru31_0 Ti5_6 2.589478 1_555
Ru31_0 Ti5_7 2.589478 1_554
Ru31_0 Ti13_1 2.786754 1_554
Ru31_0 Ti13_0 2.786754 1_555
Ru31_0 Ti9_2 2.865798 1_555
Ru31_0 Ti9_3 2.865798 1_554
Ru31_1 Ti5_6 2.589478 1_555
Ru31_1 Ti5_7 2.589478 1_555
Ru31_1 Ti13_0 2.786754 1_555
Ru31_1 Ti13_1 2.786754 1_555
Ru31_1 Ti9_3 2.865798 1_555
Ru31_1 Ti9_2 2.865798 1_555
Ru31_2 Ti5_4 2.589478 1_565
Ru31_2 Ti5_5 2.589478 1_564
Ru31_2 Ti13_3 2.786754 1_554
Ru31_2 Ti13_2 2.786754 1_555
Ru31_2 Ti9_0 2.865798 1_565
Ru31_2 Ti9_1 2.865798 1_564
Ru31_3 Ti5_5 2.589478 1_565
Ru31_3 Ti5_4 2.589478 1_565
Ru31_3 Ti13_2 2.786754 1_555
Ru31_3 Ti13_3 2.786754 1_555
Ru31_3 Ti9_1 2.865798 1_565
Ru31_3 Ti9_0 2.865798 1_565
Ru31_4 Ti5_3 2.589478 1_654
Ru31_4 Ti5_2 2.589478 1_655
Ru31_4 Ti13_4 2.786754 1_555
Ru31_4 Ti13_5 2.786754 1_554
Ru31_4 Ti9_7 2.865798 1_554
Ru31_4 Ti9_6 2.865798 1_555
Ru31_5 Ti5_3 2.589478 1_655
Ru31_5 Ti5_2 2.589478 1_655
Ru31_5 Ti13_4 2.786754 1_555
Ru31_5 Ti13_5 2.786754 1_555
Ru31_5 Ti9_6 2.865798 1_555
Ru31_5 Ti9_7 2.865798 1_555
Ru31_6 Ti5_0 2.589478 1_665
Ru31_6 Ti5_1 2.589478 1_664
Ru31_6 Ti13_7 2.786754 1_554
Ru31_6 Ti13_6 2.786754 1_555
Ru31_6 Ti9_5 2.865798 1_564
Ru31_6 Ti9_4 2.865798 1_565
Ru31_7 Ti5_1 2.589478 1_665
Ru31_7 Ti5_0 2.589478 1_665
Ru31_7 Ti13_7 2.786754 1_555
Ru31_7 Ti13_6 2.786754 1_555
Ru31_7 Ti9_4 2.865798 1_565
Ru31_7 Ti9_5 2.865798 1_565
Ru32_0 Ti4_1 2.589478 1_554
Ru32_0 Ti4_0 2.589478 1_555
Ru32_0 Ti6_0 2.786754 1_555
Ru32_0 Ti6_1 2.786754 1_554
Ru32_0 Ti10_0 2.865798 1_555
Ru32_0 Ti10_1 2.865798 1_554
Ru32_1 Ti4_1 2.589478 1_555
Ru32_1 Ti4_0 2.589478 1_555
Ru32_1 Ti6_1 2.786754 1_555
Ru32_1 Ti6_0 2.786754 1_555
Ru32_1 Ti10_0 2.865798 1_555
Ru32_1 Ti10_1 2.865798 1_555
Ru32_2 Ti4_3 2.589478 1_554
Ru32_2 Ti4_2 2.589478 1_555
Ru32_2 Ti6_3 2.786754 1_554
Ru32_2 Ti6_2 2.786754 1_555
Ru32_2 Ti10_3 2.865798 1_554
Ru32_2 Ti10_2 2.865798 1_555
Ru32_3 Ti4_3 2.589478 1_555
Ru32_3 Ti4_2 2.589478 1_555
Ru32_3 Ti6_2 2.786754 1_555
Ru32_3 Ti6_3 2.786754 1_555
Ru32_3 Ti10_3 2.865798 1_555
Ru32_3 Ti10_2 2.865798 1_555
Ru32_4 Ti4_4 2.589478 1_555
Ru32_4 Ti4_5 2.589478 1_554
Ru32_4 Ti6_5 2.786754 1_554
Ru32_4 Ti6_4 2.786754 1_555
Ru32_4 Ti10_5 2.865798 1_554
Ru32_4 Ti10_4 2.865798 1_555
Ru32_5 Ti4_4 2.589478 1_555
Ru32_5 Ti4_5 2.589478 1_555
Ru32_5 Ti6_5 2.786754 1_555
Ru32_5 Ti6_4 2.786754 1_555
Ru32_5 Ti10_5 2.865798 1_555
Ru32_5 Ti10_4 2.865798 1_555
Ru32_6 Ti4_7 2.589478 1_554
Ru32_6 Ti4_6 2.589478 1_555
Ru32_6 Ti6_7 2.786754 1_554
Ru32_6 Ti6_6 2.786754 1_555
Ru32_6 Ti10_7 2.865798 1_554
Ru32_6 Ti10_6 2.865798 1_555
Ru32_7 Ti4_7 2.589478 1_555
Ru32_7 Ti4_6 2.589478 1_555
Ru32_7 Ti6_6 2.786754 1_555
Ru32_7 Ti6_7 2.786754 1_555
Ru32_7 Ti10_7 2.865798 1_555
Ru32_7 Ti10_6 2.865798 1_555
Ru33_0 Ti4_0 2.589478 1_555
Ru33_0 Ti4_1 2.589478 1_554
Ru33_0 Ti7_0 2.786754 1_555
Ru33_0 Ti7_1 2.786754 1_554
Ru33_0 Ti11_0 2.865798 1_555
Ru33_0 Ti11_1 2.865798 1_554
Ru33_1 Ti4_1 2.589478 1_555
Ru33_1 Ti4_0 2.589478 1_555
Ru33_1 Ti7_1 2.786754 1_555
Ru33_1 Ti7_0 2.786754 1_555
Ru33_1 Ti11_0 2.865798 1_555
Ru33_1 Ti11_1 2.865798 1_555
Ru33_2 Ti4_3 2.589478 1_554
Ru33_2 Ti4_2 2.589478 1_555
Ru33_2 Ti7_2 2.786754 1_555
Ru33_2 Ti7_3 2.786754 1_554
Ru33_2 Ti11_2 2.865798 1_555
Ru33_2 Ti11_3 2.865798 1_554
Ru33_3 Ti4_2 2.589478 1_555
Ru33_3 Ti4_3 2.589478 1_555
Ru33_3 Ti7_2 2.786754 1_555
Ru33_3 Ti7_3 2.786754 1_555
Ru33_3 Ti11_2 2.865798 1_555
Ru33_3 Ti11_3 2.865798 1_555
Ru33_4 Ti4_5 2.589478 1_554
Ru33_4 Ti4_4 2.589478 1_555
Ru33_4 Ti7_5 2.786754 1_554
Ru33_4 Ti7_4 2.786754 1_555
Ru33_4 Ti11_4 2.865798 1_555
Ru33_4 Ti11_5 2.865798 1_554
Ru33_5 Ti4_5 2.589478 1_555
Ru33_5 Ti4_4 2.589478 1_555
Ru33_5 Ti7_4 2.786754 1_555
Ru33_5 Ti7_5 2.786754 1_555
Ru33_5 Ti11_4 2.865798 1_555
Ru33_5 Ti11_5 2.865798 1_555
Ru33_6 Ti4_6 2.589478 1_555
Ru33_6 Ti4_7 2.589478 1_554
Ru33_6 Ti7_7 2.786754 1_554
Ru33_6 Ti7_6 2.786754 1_555
Ru33_6 Ti11_7 2.865798 1_554
Ru33_6 Ti11_6 2.865798 1_555
Ru33_7 Ti4_6 2.589478 1_555
Ru33_7 Ti4_7 2.589478 1_555
Ru33_7 Ti7_7 2.786754 1_555
Ru33_7 Ti7_6 2.786754 1_555
Ru33_7 Ti11_7 2.865798 1_555
Ru33_7 Ti11_6 2.865798 1_555
Ru34_0 Ti5_5 2.589478 1_554
Ru34_0 Ti5_4 2.589478 1_555
Ru34_0 Ti9_1 2.786754 1_554
Ru34_0 Ti9_0 2.786754 1_555
Ru34_0 Ti12_4 2.865798 1_555
Ru34_0 Ti12_5 2.865798 1_554
Ru34_1 Ti5_4 2.589478 1_555
Ru34_1 Ti5_5 2.589478 1_555
Ru34_1 Ti9_0 2.786754 1_555
Ru34_1 Ti9_1 2.786754 1_555
Ru34_1 Ti12_4 2.865798 1_555
Ru34_1 Ti12_5 2.865798 1_555
Ru34_2 Ti5_7 2.589478 1_554
Ru34_2 Ti5_6 2.589478 1_555
Ru34_2 Ti9_2 2.786754 1_555
Ru34_2 Ti9_3 2.786754 1_554
Ru34_2 Ti12_7 2.865798 1_554
Ru34_2 Ti12_6 2.865798 1_555
Ru34_3 Ti5_6 2.589478 1_555
Ru34_3 Ti5_7 2.589478 1_555
Ru34_3 Ti9_2 2.786754 1_555
Ru34_3 Ti9_3 2.786754 1_555
Ru34_3 Ti12_7 2.865798 1_555
Ru34_3 Ti12_6 2.865798 1_555
Ru34_4 Ti5_1 2.589478 1_654
Ru34_4 Ti5_0 2.589478 1_655
Ru34_4 Ti9_4 2.786754 1_555
Ru34_4 Ti9_5 2.786754 1_554
Ru34_4 Ti12_1 2.865798 1_654
Ru34_4 Ti12_0 2.865798 1_655
Ru34_5 Ti5_0 2.589478 1_655
Ru34_5 Ti5_1 2.589478 1_655
Ru34_5 Ti9_5 2.786754 1_555
Ru34_5 Ti9_4 2.786754 1_555
Ru34_5 Ti12_1 2.865798 1_655
Ru34_5 Ti12_0 2.865798 1_655
Ru34_6 Ti5_2 2.589478 1_655
Ru34_6 Ti5_3 2.589478 1_654
Ru34_6 Ti9_7 2.786754 1_554
Ru34_6 Ti9_6 2.786754 1_555
Ru34_6 Ti12_2 2.865798 1_655
Ru34_6 Ti12_3 2.865798 1_654
Ru34_7 Ti5_2 2.589478 1_655
Ru34_7 Ti5_3 2.589478 1_655
Ru34_7 Ti9_6 2.786754 1_555
Ru34_7 Ti9_7 2.786754 1_555
Ru34_7 Ti12_3 2.865798 1_655
Ru34_7 Ti12_2 2.865798 1_655
Ru35_0 Ti5_2 2.589478 1_555
Ru35_0 Ti5_3 2.589478 1_554
Ru35_0 Ti8_1 2.786754 1_554
Ru35_0 Ti8_0 2.786754 1_555
Ru35_0 Ti13_4 2.865798 1_455
Ru35_0 Ti13_5 2.865798 1_454
Ru35_1 Ti5_3 2.589478 1_555
Ru35_1 Ti5_2 2.589478 1_555
Ru35_1 Ti8_0 2.786754 1_555
Ru35_1 Ti8_1 2.786754 1_555
Ru35_1 Ti13_4 2.865798 1_455
Ru35_1 Ti13_5 2.865798 1_455
Ru35_2 Ti5_0 2.589478 1_565
Ru35_2 Ti5_1 2.589478 1_564
Ru35_2 Ti8_2 2.786754 1_555
Ru35_2 Ti8_3 2.786754 1_554
Ru35_2 Ti13_6 2.865798 1_455
Ru35_2 Ti13_7 2.865798 1_454
Ru35_3 Ti5_0 2.589478 1_565
Ru35_3 Ti5_1 2.589478 1_565
Ru35_3 Ti8_2 2.786754 1_555
Ru35_3 Ti8_3 2.786754 1_555
Ru35_3 Ti13_7 2.865798 1_455
Ru35_3 Ti13_6 2.865798 1_455
Ru35_4 Ti5_6 2.589478 1_555
Ru35_4 Ti5_7 2.589478 1_554
Ru35_4 Ti8_5 2.786754 1_554
Ru35_4 Ti8_4 2.786754 1_555
Ru35_4 Ti13_1 2.865798 1_554
Ru35_4 Ti13_0 2.865798 1_555
Ru35_5 Ti5_6 2.589478 1_555
Ru35_5 Ti5_7 2.589478 1_555
Ru35_5 Ti8_5 2.786754 1_555
Ru35_5 Ti8_4 2.786754 1_555
Ru35_5 Ti13_0 2.865798 1_555
Ru35_5 Ti13_1 2.865798 1_555
Ru35_6 Ti5_4 2.589478 1_565
Ru35_6 Ti5_5 2.589478 1_564
Ru35_6 Ti8_7 2.786754 1_554
Ru35_6 Ti8_6 2.786754 1_555
Ru35_6 Ti13_2 2.865798 1_555
Ru35_6 Ti13_3 2.865798 1_554
Ru35_7 Ti5_5 2.589478 1_565
Ru35_7 Ti5_4 2.589478 1_565
Ru35_7 Ti8_7 2.786754 1_555
Ru35_7 Ti8_6 2.786754 1_555
Ru35_7 Ti13_3 2.865798 1_555
Ru35_7 Ti13_2 2.865798 1_555
