# generated using pymatgen
data_V32N3
_symmetry_space_group_name_H-M   'P 1'
_cell_length_a   5.93206634
_cell_length_b   17.26297996
_cell_length_c   34.54615920
_cell_angle_alpha   90.79527235
_cell_angle_beta   90.00000000
_cell_angle_gamma   90.00000000
_symmetry_Int_Tables_number   1
_chemical_formula_structural   V32N3
_chemical_formula_sum   'V256 N24'
_cell_volume   3537.36357319
_cell_formula_units_Z   8
loop_
 _symmetry_equiv_pos_site_id
 _symmetry_equiv_pos_as_xyz
  1  'x, y, z'
loop_
 _atom_site_type_symbol
 _atom_site_label
 _atom_site_symmetry_multiplicity
 _atom_site_fract_x
 _atom_site_fract_y
 _atom_site_fract_z
 _atom_site_occupancy
  V  V0_0  1  0.25000000  0.44430533  0.02837931  1
  V  V0_1  1  0.25000000  0.44430533  0.52837932  1
  V  V0_2  1  0.25000000  0.94430533  0.02837931  1
  V  V0_3  1  0.25000000  0.94430532  0.52837932  1
  V  V0_4  1  0.75000000  0.44430533  0.02837931  1
  V  V0_5  1  0.75000000  0.44430533  0.52837932  1
  V  V0_6  1  0.75000000  0.94430533  0.02837931  1
  V  V0_7  1  0.75000000  0.94430532  0.52837932  1
  V  V1_0  1  0.25000000  0.44185939  0.27875609  1
  V  V1_1  1  0.25000000  0.44185939  0.77875609  1
  V  V1_2  1  0.25000000  0.94185939  0.27875609  1
  V  V1_3  1  0.25000000  0.94185939  0.77875609  1
  V  V1_4  1  0.75000000  0.44185939  0.27875609  1
  V  V1_5  1  0.75000000  0.44185939  0.77875609  1
  V  V1_6  1  0.75000000  0.94185939  0.27875609  1
  V  V1_7  1  0.75000000  0.94185939  0.77875609  1
  V  V2_0  1  0.25000000  0.05814061  0.22124391  1
  V  V2_1  1  0.25000000  0.05814061  0.72124391  1
  V  V2_2  1  0.25000000  0.55814061  0.22124391  1
  V  V2_3  1  0.25000000  0.55814061  0.72124391  1
  V  V2_4  1  0.75000000  0.05814061  0.22124391  1
  V  V2_5  1  0.75000000  0.05814061  0.72124391  1
  V  V2_6  1  0.75000000  0.55814061  0.22124391  1
  V  V2_7  1  0.75000000  0.55814061  0.72124391  1
  V  V3_0  1  0.25000000  0.05569467  0.47162069  1
  V  V3_1  1  0.25000000  0.05569468  0.97162069  1
  V  V3_2  1  0.25000000  0.55569468  0.47162068  1
  V  V3_3  1  0.25000000  0.55569468  0.97162069  1
  V  V3_4  1  0.75000000  0.05569467  0.47162069  1
  V  V3_5  1  0.75000000  0.05569468  0.97162069  1
  V  V3_6  1  0.75000000  0.55569468  0.47162068  1
  V  V3_7  1  0.75000000  0.55569468  0.97162069  1
  V  V4_0  1  0.00000000  0.31086553  0.15515618  1
  V  V4_1  1  0.00000000  0.31086553  0.65515618  1
  V  V4_2  1  0.00000000  0.81086553  0.15515618  1
  V  V4_3  1  0.00000000  0.81086553  0.65515618  1
  V  V4_4  1  0.50000000  0.31086553  0.15515618  1
  V  V4_5  1  0.50000000  0.31086553  0.65515618  1
  V  V4_6  1  0.50000000  0.81086553  0.15515618  1
  V  V4_7  1  0.50000000  0.81086553  0.65515618  1
  V  V5_0  1  0.00000000  0.30433554  0.40219791  1
  V  V5_1  1  0.00000000  0.30433554  0.90219790  1
  V  V5_2  1  0.00000000  0.80433554  0.40219791  1
  V  V5_3  1  0.00000000  0.80433554  0.90219790  1
  V  V5_4  1  0.50000000  0.30433554  0.40219791  1
  V  V5_5  1  0.50000000  0.30433554  0.90219790  1
  V  V5_6  1  0.50000000  0.80433554  0.40219791  1
  V  V5_7  1  0.50000000  0.80433554  0.90219790  1
  V  V6_0  1  0.00000000  0.19566446  0.09780210  1
  V  V6_1  1  0.00000000  0.19566446  0.59780210  1
  V  V6_2  1  0.00000000  0.69566446  0.09780210  1
  V  V6_3  1  0.00000000  0.69566446  0.59780209  1
  V  V6_4  1  0.50000000  0.19566446  0.09780210  1
  V  V6_5  1  0.50000000  0.19566446  0.59780210  1
  V  V6_6  1  0.50000000  0.69566446  0.09780210  1
  V  V6_7  1  0.50000000  0.69566446  0.59780209  1
  V  V7_0  1  0.00000000  0.18913447  0.34484382  1
  V  V7_1  1  0.00000000  0.18913447  0.84484382  1
  V  V7_2  1  0.00000000  0.68913448  0.34484383  1
  V  V7_3  1  0.00000000  0.68913448  0.84484382  1
  V  V7_4  1  0.50000000  0.18913447  0.34484382  1
  V  V7_5  1  0.50000000  0.18913447  0.84484382  1
  V  V7_6  1  0.50000000  0.68913448  0.34484383  1
  V  V7_7  1  0.50000000  0.68913448  0.84484382  1
  V  V8_0  1  0.25000000  0.19346178  0.03212820  1
  V  V8_1  1  0.25000000  0.19346178  0.53212820  1
  V  V8_2  1  0.25000000  0.69346178  0.03212820  1
  V  V8_3  1  0.25000000  0.69346179  0.53212820  1
  V  V8_4  1  0.75000000  0.19346178  0.03212820  1
  V  V8_5  1  0.75000000  0.19346178  0.53212820  1
  V  V8_6  1  0.75000000  0.69346178  0.03212820  1
  V  V8_7  1  0.75000000  0.69346179  0.53212820  1
  V  V9_0  1  0.25000000  0.18639492  0.28039961  1
  V  V9_1  1  0.25000000  0.18639491  0.78039961  1
  V  V9_2  1  0.25000000  0.68639492  0.28039961  1
  V  V9_3  1  0.25000000  0.68639492  0.78039961  1
  V  V9_4  1  0.75000000  0.18639492  0.28039961  1
  V  V9_5  1  0.75000000  0.18639491  0.78039961  1
  V  V9_6  1  0.75000000  0.68639492  0.28039961  1
  V  V9_7  1  0.75000000  0.68639492  0.78039961  1
  V  V10_0  1  0.25000000  0.31360509  0.21960039  1
  V  V10_1  1  0.25000000  0.31360509  0.71960039  1
  V  V10_2  1  0.25000000  0.81360509  0.21960039  1
  V  V10_3  1  0.25000000  0.81360509  0.71960039  1
  V  V10_4  1  0.75000000  0.31360509  0.21960039  1
  V  V10_5  1  0.75000000  0.31360509  0.71960039  1
  V  V10_6  1  0.75000000  0.81360509  0.21960039  1
  V  V10_7  1  0.75000000  0.81360509  0.71960039  1
  V  V11_0  1  0.25000000  0.30653822  0.46787180  1
  V  V11_1  1  0.25000000  0.30653822  0.96787180  1
  V  V11_2  1  0.25000000  0.80653822  0.46787180  1
  V  V11_3  1  0.25000000  0.80653822  0.96787180  1
  V  V11_4  1  0.75000000  0.30653822  0.46787180  1
  V  V11_5  1  0.75000000  0.30653822  0.96787180  1
  V  V11_6  1  0.75000000  0.80653822  0.46787180  1
  V  V11_7  1  0.75000000  0.80653822  0.96787180  1
  V  V12_0  1  0.00000000  0.05784998  0.15839218  1
  V  V12_1  1  0.00000000  0.05784998  0.65839218  1
  V  V12_2  1  0.00000000  0.55784999  0.15839218  1
  V  V12_3  1  0.00000000  0.55784999  0.65839218  1
  V  V12_4  1  0.50000000  0.05784998  0.15839218  1
  V  V12_5  1  0.50000000  0.05784998  0.65839218  1
  V  V12_6  1  0.50000000  0.55784999  0.15839218  1
  V  V12_7  1  0.50000000  0.55784999  0.65839218  1
  V  V13_0  1  0.00000000  0.05501470  0.40589907  1
  V  V13_1  1  0.00000000  0.05501470  0.90589907  1
  V  V13_2  1  0.00000000  0.55501470  0.40589907  1
  V  V13_3  1  0.00000000  0.55501470  0.90589907  1
  V  V13_4  1  0.50000000  0.05501470  0.40589907  1
  V  V13_5  1  0.50000000  0.05501470  0.90589907  1
  V  V13_6  1  0.50000000  0.55501470  0.40589907  1
  V  V13_7  1  0.50000000  0.55501470  0.90589907  1
  V  V14_0  1  0.00000000  0.44498530  0.09410093  1
  V  V14_1  1  0.00000000  0.44498530  0.59410093  1
  V  V14_2  1  0.00000000  0.94498531  0.09410093  1
  V  V14_3  1  0.00000000  0.94498531  0.59410093  1
  V  V14_4  1  0.50000000  0.44498530  0.09410093  1
  V  V14_5  1  0.50000000  0.44498530  0.59410093  1
  V  V14_6  1  0.50000000  0.94498531  0.09410093  1
  V  V14_7  1  0.50000000  0.94498531  0.59410093  1
  V  V15_0  1  0.00000000  0.44215002  0.34160781  1
  V  V15_1  1  0.00000000  0.44215002  0.84160781  1
  V  V15_2  1  0.00000000  0.94215002  0.34160781  1
  V  V15_3  1  0.00000000  0.94215002  0.84160781  1
  V  V15_4  1  0.50000000  0.44215002  0.34160781  1
  V  V15_5  1  0.50000000  0.44215002  0.84160781  1
  V  V15_6  1  0.50000000  0.94215002  0.34160781  1
  V  V15_7  1  0.50000000  0.94215002  0.84160781  1
  V  V16_0  1  0.25000000  0.06454601  0.09701065  1
  V  V16_1  1  0.25000000  0.06454601  0.59701065  1
  V  V16_2  1  0.25000000  0.56454601  0.09701065  1
  V  V16_3  1  0.25000000  0.56454601  0.59701065  1
  V  V16_4  1  0.75000000  0.06454601  0.09701065  1
  V  V16_5  1  0.75000000  0.06454601  0.59701065  1
  V  V16_6  1  0.75000000  0.56454601  0.09701065  1
  V  V16_7  1  0.75000000  0.56454601  0.59701065  1
  V  V17_0  1  0.25000000  0.06018159  0.34295806  1
  V  V17_1  1  0.25000000  0.06018159  0.84295806  1
  V  V17_2  1  0.25000000  0.56018159  0.34295806  1
  V  V17_3  1  0.25000000  0.56018159  0.84295806  1
  V  V17_4  1  0.75000000  0.06018159  0.34295806  1
  V  V17_5  1  0.75000000  0.06018159  0.84295806  1
  V  V17_6  1  0.75000000  0.56018159  0.34295806  1
  V  V17_7  1  0.75000000  0.56018159  0.84295806  1
  V  V18_0  1  0.25000000  0.43981841  0.15704193  1
  V  V18_1  1  0.25000000  0.43981841  0.65704193  1
  V  V18_2  1  0.25000000  0.93981841  0.15704193  1
  V  V18_3  1  0.25000000  0.93981841  0.65704193  1
  V  V18_4  1  0.75000000  0.43981841  0.15704193  1
  V  V18_5  1  0.75000000  0.43981841  0.65704193  1
  V  V18_6  1  0.75000000  0.93981841  0.15704193  1
  V  V18_7  1  0.75000000  0.93981841  0.65704193  1
  V  V19_0  1  0.25000000  0.43545399  0.40298935  1
  V  V19_1  1  0.25000000  0.43545399  0.90298935  1
  V  V19_2  1  0.25000000  0.93545399  0.40298935  1
  V  V19_3  1  0.25000000  0.93545399  0.90298935  1
  V  V19_4  1  0.75000000  0.43545399  0.40298935  1
  V  V19_5  1  0.75000000  0.43545399  0.90298935  1
  V  V19_6  1  0.75000000  0.93545399  0.40298935  1
  V  V19_7  1  0.75000000  0.93545399  0.90298935  1
  V  V20_0  1  0.00000000  0.31415412  0.02900929  1
  V  V20_1  1  0.00000000  0.31415412  0.52900929  1
  V  V20_2  1  0.00000000  0.81415412  0.02900929  1
  V  V20_3  1  0.00000000  0.81415412  0.52900929  1
  V  V20_4  1  0.50000000  0.31415412  0.02900929  1
  V  V20_5  1  0.50000000  0.31415412  0.52900929  1
  V  V20_6  1  0.50000000  0.81415412  0.02900929  1
  V  V20_7  1  0.50000000  0.81415412  0.52900929  1
  V  V21_0  1  0.00000000  0.31456391  0.27751774  1
  V  V21_1  1  0.00000000  0.31456391  0.77751774  1
  V  V21_2  1  0.00000000  0.81456391  0.27751774  1
  V  V21_3  1  0.00000000  0.81456391  0.77751774  1
  V  V21_4  1  0.50000000  0.31456391  0.27751774  1
  V  V21_5  1  0.50000000  0.31456391  0.77751774  1
  V  V21_6  1  0.50000000  0.81456391  0.27751774  1
  V  V21_7  1  0.50000000  0.81456391  0.77751774  1
  V  V22_0  1  0.00000000  0.18543610  0.22248226  1
  V  V22_1  1  0.00000000  0.18543609  0.72248226  1
  V  V22_2  1  0.00000000  0.68543610  0.22248226  1
  V  V22_3  1  0.00000000  0.68543610  0.72248226  1
  V  V22_4  1  0.50000000  0.18543610  0.22248226  1
  V  V22_5  1  0.50000000  0.18543609  0.72248226  1
  V  V22_6  1  0.50000000  0.68543610  0.22248226  1
  V  V22_7  1  0.50000000  0.68543610  0.72248226  1
  V  V23_0  1  0.00000000  0.18584588  0.47099071  1
  V  V23_1  1  0.00000000  0.18584588  0.97099071  1
  V  V23_2  1  0.00000000  0.68584588  0.47099071  1
  V  V23_3  1  0.00000000  0.68584588  0.97099071  1
  V  V23_4  1  0.50000000  0.18584588  0.47099071  1
  V  V23_5  1  0.50000000  0.18584588  0.97099071  1
  V  V23_6  1  0.50000000  0.68584588  0.47099071  1
  V  V23_7  1  0.50000000  0.68584588  0.97099071  1
  V  V24_0  1  0.25000000  0.17557854  0.16516787  1
  V  V24_1  1  0.25000000  0.17557854  0.66516787  1
  V  V24_2  1  0.25000000  0.67557854  0.16516788  1
  V  V24_3  1  0.25000000  0.67557853  0.66516787  1
  V  V24_4  1  0.75000000  0.17557854  0.16516787  1
  V  V24_5  1  0.75000000  0.17557854  0.66516787  1
  V  V24_6  1  0.75000000  0.67557854  0.16516788  1
  V  V24_7  1  0.75000000  0.67557853  0.66516787  1
  V  V25_0  1  0.25000000  0.16843339  0.41297426  1
  V  V25_1  1  0.25000000  0.16843338  0.91297425  1
  V  V25_2  1  0.25000000  0.66843339  0.41297426  1
  V  V25_3  1  0.25000000  0.66843339  0.91297425  1
  V  V25_4  1  0.75000000  0.16843339  0.41297426  1
  V  V25_5  1  0.75000000  0.16843338  0.91297425  1
  V  V25_6  1  0.75000000  0.66843339  0.41297426  1
  V  V25_7  1  0.75000000  0.66843339  0.91297425  1
  V  V26_0  1  0.25000000  0.33156662  0.08702575  1
  V  V26_1  1  0.25000000  0.33156662  0.58702574  1
  V  V26_2  1  0.25000000  0.83156662  0.08702575  1
  V  V26_3  1  0.25000000  0.83156662  0.58702574  1
  V  V26_4  1  0.75000000  0.33156662  0.08702575  1
  V  V26_5  1  0.75000000  0.33156662  0.58702574  1
  V  V26_6  1  0.75000000  0.83156662  0.08702575  1
  V  V26_7  1  0.75000000  0.83156662  0.58702574  1
  V  V27_0  1  0.25000000  0.32442147  0.33483212  1
  V  V27_1  1  0.25000000  0.32442147  0.83483212  1
  V  V27_2  1  0.25000000  0.82442147  0.33483212  1
  V  V27_3  1  0.25000000  0.82442147  0.83483212  1
  V  V27_4  1  0.75000000  0.32442147  0.33483212  1
  V  V27_5  1  0.75000000  0.32442147  0.83483212  1
  V  V27_6  1  0.75000000  0.82442147  0.33483212  1
  V  V27_7  1  0.75000000  0.82442147  0.83483212  1
  V  V28_0  1  0.00000000  0.07977748  0.03973168  1
  V  V28_1  1  0.00000000  0.07977749  0.53973168  1
  V  V28_2  1  0.00000000  0.57977749  0.03973168  1
  V  V28_3  1  0.00000000  0.57977749  0.53973168  1
  V  V28_4  1  0.50000000  0.07977748  0.03973168  1
  V  V28_5  1  0.50000000  0.07977749  0.53973168  1
  V  V28_6  1  0.50000000  0.57977749  0.03973168  1
  V  V28_7  1  0.50000000  0.57977749  0.53973168  1
  V  V29_0  1  0.00000000  0.06406748  0.28226088  1
  V  V29_1  1  0.00000000  0.06406748  0.78226088  1
  V  V29_2  1  0.00000000  0.56406748  0.28226088  1
  V  V29_3  1  0.00000000  0.56406748  0.78226087  1
  V  V29_4  1  0.50000000  0.06406748  0.28226088  1
  V  V29_5  1  0.50000000  0.06406748  0.78226088  1
  V  V29_6  1  0.50000000  0.56406748  0.28226088  1
  V  V29_7  1  0.50000000  0.56406748  0.78226087  1
  V  V30_0  1  0.00000000  0.43593252  0.21773913  1
  V  V30_1  1  0.00000000  0.43593252  0.71773913  1
  V  V30_2  1  0.00000000  0.93593252  0.21773913  1
  V  V30_3  1  0.00000000  0.93593252  0.71773912  1
  V  V30_4  1  0.50000000  0.43593252  0.21773913  1
  V  V30_5  1  0.50000000  0.43593252  0.71773913  1
  V  V30_6  1  0.50000000  0.93593252  0.21773913  1
  V  V30_7  1  0.50000000  0.93593252  0.71773912  1
  V  V31_0  1  0.00000000  0.42022252  0.46026832  1
  V  V31_1  1  0.00000000  0.42022252  0.96026832  1
  V  V31_2  1  0.00000000  0.92022252  0.46026832  1
  V  V31_3  1  0.00000000  0.92022252  0.96026832  1
  V  V31_4  1  0.50000000  0.42022252  0.46026832  1
  V  V31_5  1  0.50000000  0.42022252  0.96026832  1
  V  V31_6  1  0.50000000  0.92022252  0.46026832  1
  V  V31_7  1  0.50000000  0.92022252  0.96026832  1
  N  N0_0  1  0.25000000  0.25351486  0.12610769  1
  N  N0_1  1  0.25000000  0.25351486  0.62610769  1
  N  N0_2  1  0.25000000  0.75351486  0.12610769  1
  N  N0_3  1  0.25000000  0.75351486  0.62610769  1
  N  N0_4  1  0.75000000  0.25351486  0.12610769  1
  N  N0_5  1  0.75000000  0.25351486  0.62610769  1
  N  N0_6  1  0.75000000  0.75351486  0.12610769  1
  N  N0_7  1  0.75000000  0.75351486  0.62610769  1
  N  N1_0  1  0.25000000  0.24648514  0.37389231  1
  N  N1_1  1  0.25000000  0.24648514  0.87389231  1
  N  N1_2  1  0.25000000  0.74648514  0.37389231  1
  N  N1_3  1  0.25000000  0.74648514  0.87389231  1
  N  N1_4  1  0.75000000  0.24648514  0.37389231  1
  N  N1_5  1  0.75000000  0.24648514  0.87389231  1
  N  N1_6  1  0.75000000  0.74648514  0.37389231  1
  N  N1_7  1  0.75000000  0.74648514  0.87389231  1
  N  N2_0  1  0.00000000  0.00000000  0.00000000  1
  N  N2_1  1  0.00000000  0.00000000  0.50000000  1
  N  N2_2  1  0.00000000  0.50000000  0.00000000  1
  N  N2_3  1  0.00000000  0.50000000  0.50000000  1
  N  N2_4  1  0.50000000  0.00000000  0.00000000  1
  N  N2_5  1  0.50000000  0.00000000  0.50000000  1
  N  N2_6  1  0.50000000  0.50000000  0.00000000  1
  N  N2_7  1  0.50000000  0.50000000  0.50000000  1
loop_
_geom_bond_atom_site_label_1
_geom_bond_atom_site_label_2
_geom_bond_distance
_geom_bond_site_symmetry_2
V0_0 V20_4 2.692447 1_555
V0_0 V20_0 2.692447 1_555
V0_0 V14_0 2.711750 1_555
V0_0 V14_4 2.711750 1_555
V0_1 V20_1 2.692447 1_555
V0_1 V20_5 2.692447 1_555
V0_1 V14_1 2.711750 1_555
V0_1 V14_5 2.711750 1_555
V0_2 V20_2 2.692447 1_555
V0_2 V20_6 2.692447 1_555
V0_2 V14_2 2.711750 1_555
V0_2 V14_6 2.711750 1_555
V0_3 V20_3 2.692447 1_555
V0_3 V20_7 2.692447 1_555
V0_3 V14_3 2.711750 1_555
V0_3 V14_7 2.711750 1_555
V0_4 V20_4 2.692447 1_555
V0_4 V20_0 2.692447 1_655
V0_4 V14_0 2.711750 1_655
V0_4 V14_4 2.711750 1_555
V0_5 V20_5 2.692447 1_555
V0_5 V20_1 2.692447 1_655
V0_5 V14_1 2.711750 1_655
V0_5 V14_5 2.711750 1_555
V0_6 V20_2 2.692447 1_655
V0_6 V20_6 2.692447 1_555
V0_6 V14_2 2.711750 1_655
V0_6 V14_6 2.711750 1_555
V0_7 V20_7 2.692447 1_555
V0_7 V20_3 2.692447 1_655
V0_7 V14_3 2.711750 1_655
V0_7 V14_7 2.711750 1_555
V1_0 V30_0 2.578191 1_555
V1_0 V30_4 2.578191 1_555
V1_0 V29_2 2.580240 1_555
V1_0 V29_6 2.580240 1_555
V1_0 V21_0 2.650955 1_555
V1_0 V21_4 2.650955 1_555
V1_0 V27_0 2.823450 1_555
V1_0 V2_2 2.843885 1_555
V1_0 V1_4 2.966033 1_555
V1_0 V1_4 2.966033 1_455
V1_1 V30_1 2.578191 1_555
V1_1 V30_5 2.578191 1_555
V1_1 V29_3 2.580240 1_555
V1_1 V29_7 2.580240 1_555
V1_1 V21_5 2.650955 1_555
V1_1 V21_1 2.650955 1_555
V1_1 V27_1 2.823450 1_555
V1_1 V2_3 2.843885 1_555
V1_1 V1_5 2.966033 1_455
V1_1 V1_5 2.966033 1_555
V1_2 V30_2 2.578191 1_555
V1_2 V30_6 2.578191 1_555
V1_2 V29_0 2.580240 1_565
V1_2 V29_4 2.580240 1_565
V1_2 V21_2 2.650955 1_555
V1_2 V21_6 2.650955 1_555
V1_2 V27_2 2.823450 1_555
V1_2 V2_0 2.843885 1_565
V1_2 V1_6 2.966033 1_555
V1_2 V1_6 2.966033 1_455
V1_3 V30_3 2.578191 1_555
V1_3 V30_7 2.578191 1_555
V1_3 V29_1 2.580240 1_565
V1_3 V29_5 2.580240 1_565
V1_3 V21_3 2.650955 1_555
V1_3 V21_7 2.650955 1_555
V1_3 V27_3 2.823450 1_555
V1_3 V2_1 2.843885 1_565
V1_3 V1_7 2.966033 1_455
V1_3 V1_7 2.966033 1_555
V1_4 V30_4 2.578191 1_555
V1_4 V30_0 2.578191 1_655
V1_4 V29_2 2.580240 1_655
V1_4 V29_6 2.580240 1_555
V1_4 V21_4 2.650955 1_555
V1_4 V21_0 2.650955 1_655
V1_4 V27_4 2.823450 1_555
V1_4 V2_6 2.843885 1_555
V1_5 V30_1 2.578191 1_655
V1_5 V30_5 2.578191 1_555
V1_5 V29_7 2.580240 1_555
V1_5 V29_3 2.580240 1_655
V1_5 V21_1 2.650955 1_655
V1_5 V21_5 2.650955 1_555
V1_5 V27_5 2.823450 1_555
V1_5 V2_7 2.843885 1_555
V1_6 V30_6 2.578191 1_555
V1_6 V30_2 2.578191 1_655
V1_6 V29_0 2.580240 1_665
V1_6 V29_4 2.580240 1_565
V1_6 V21_2 2.650955 1_655
V1_6 V21_6 2.650955 1_555
V1_6 V27_6 2.823450 1_555
V1_6 V2_4 2.843885 1_565
V1_7 V30_3 2.578191 1_655
V1_7 V30_7 2.578191 1_555
V1_7 V29_1 2.580240 1_665
V1_7 V29_5 2.580240 1_565
V1_7 V21_3 2.650955 1_655
V1_7 V21_7 2.650955 1_555
V1_7 V27_7 2.823450 1_555
V1_7 V2_5 2.843885 1_565
V2_0 V30_6 2.580240 1_545
V2_0 V30_2 2.580240 1_545
V2_0 V2_4 2.966033 1_455
V2_0 V2_4 2.966033 1_555
V2_0 V9_0 2.992112 1_555
V2_1 V30_3 2.580240 1_545
V2_1 V30_7 2.580240 1_545
V2_1 V2_5 2.966033 1_555
V2_1 V2_5 2.966033 1_455
V2_1 V9_1 2.992112 1_555
V2_2 V30_4 2.580240 1_555
V2_2 V30_0 2.580240 1_555
V2_2 V2_6 2.966033 1_455
V2_2 V2_6 2.966033 1_555
V2_2 V9_2 2.992112 1_555
V2_3 V30_1 2.580240 1_555
V2_3 V30_5 2.580240 1_555
V2_3 V2_7 2.966033 1_455
V2_3 V2_7 2.966033 1_555
V2_3 V9_3 2.992112 1_555
V2_4 V30_6 2.580240 1_545
V2_4 V30_2 2.580240 1_645
V2_4 V9_4 2.992112 1_555
V2_5 V30_3 2.580240 1_645
V2_5 V30_7 2.580240 1_545
V2_5 V9_5 2.992112 1_555
V2_6 V30_0 2.580240 1_655
V2_6 V30_4 2.580240 1_555
V2_6 V9_6 2.992112 1_555
V2_7 V30_1 2.580240 1_655
V2_7 V30_5 2.580240 1_555
V2_7 V9_7 2.992112 1_555
V6_0 V8_0 2.710305 1_555
V6_0 V8_4 2.710305 1_455
V6_1 V8_5 2.710305 1_455
V6_1 V8_1 2.710305 1_555
V6_2 V8_6 2.710305 1_455
V6_2 V8_2 2.710305 1_555
V6_3 V8_3 2.710305 1_555
V6_3 V8_7 2.710305 1_455
V6_4 V8_0 2.710305 1_555
V6_4 V8_4 2.710305 1_555
V6_5 V8_1 2.710305 1_555
V6_5 V8_5 2.710305 1_555
V6_6 V8_2 2.710305 1_555
V6_6 V8_6 2.710305 1_555
V6_7 V8_3 2.710305 1_555
V6_7 V8_7 2.710305 1_555
V7_0 V9_4 2.674895 1_455
V7_0 V9_0 2.674895 1_555
V7_1 V9_1 2.674895 1_555
V7_1 V9_5 2.674895 1_455
V7_2 V9_2 2.674895 1_555
V7_2 V9_6 2.674895 1_455
V7_3 V9_7 2.674895 1_455
V7_3 V9_3 2.674895 1_555
V7_4 V9_4 2.674895 1_555
V7_4 V9_0 2.674895 1_555
V7_5 V9_1 2.674895 1_555
V7_5 V9_5 2.674895 1_555
V7_6 V9_2 2.674895 1_555
V7_6 V9_6 2.674895 1_555
V7_7 V9_7 2.674895 1_555
V7_7 V9_3 2.674895 1_555
V10_0 V21_0 2.490378 1_555
V10_0 V21_4 2.490378 1_555
V10_0 V30_4 2.581990 1_555
V10_0 V30_0 2.581990 1_555
V10_0 V22_0 2.666621 1_555
V10_0 V22_4 2.666621 1_555
V10_0 V4_0 2.674895 1_555
V10_0 V4_4 2.674895 1_555
V10_0 V1_0 2.992112 1_555
V10_1 V21_5 2.490378 1_555
V10_1 V21_1 2.490378 1_555
V10_1 V30_1 2.581990 1_555
V10_1 V30_5 2.581990 1_555
V10_1 V22_1 2.666621 1_555
V10_1 V22_5 2.666621 1_555
V10_1 V4_5 2.674895 1_555
V10_1 V4_1 2.674895 1_555
V10_1 V1_1 2.992112 1_555
V10_2 V21_6 2.490378 1_555
V10_2 V21_2 2.490378 1_555
V10_2 V30_2 2.581990 1_555
V10_2 V30_6 2.581990 1_555
V10_2 V22_2 2.666621 1_555
V10_2 V22_6 2.666621 1_555
V10_2 V4_6 2.674895 1_555
V10_2 V4_2 2.674895 1_555
V10_2 V1_2 2.992112 1_555
V10_3 V21_7 2.490378 1_555
V10_3 V21_3 2.490378 1_555
V10_3 V30_7 2.581990 1_555
V10_3 V30_3 2.581990 1_555
V10_3 V22_3 2.666621 1_555
V10_3 V22_7 2.666621 1_555
V10_3 V4_7 2.674895 1_555
V10_3 V4_3 2.674895 1_555
V10_3 V1_3 2.992112 1_555
V10_4 V21_4 2.490378 1_555
V10_4 V21_0 2.490378 1_655
V10_4 V30_4 2.581990 1_555
V10_4 V30_0 2.581990 1_655
V10_4 V22_0 2.666621 1_655
V10_4 V22_4 2.666621 1_555
V10_4 V4_4 2.674895 1_555
V10_4 V4_0 2.674895 1_655
V10_4 V1_4 2.992112 1_555
V10_5 V21_1 2.490378 1_655
V10_5 V21_5 2.490378 1_555
V10_5 V30_1 2.581990 1_655
V10_5 V30_5 2.581990 1_555
V10_5 V22_1 2.666621 1_655
V10_5 V22_5 2.666621 1_555
V10_5 V4_1 2.674895 1_655
V10_5 V4_5 2.674895 1_555
V10_5 V1_5 2.992112 1_555
V10_6 V21_6 2.490378 1_555
V10_6 V21_2 2.490378 1_655
V10_6 V30_6 2.581990 1_555
V10_6 V30_2 2.581990 1_655
V10_6 V22_2 2.666621 1_655
V10_6 V22_6 2.666621 1_555
V10_6 V4_6 2.674895 1_555
V10_6 V4_2 2.674895 1_655
V10_6 V1_6 2.992112 1_555
V10_7 V21_7 2.490378 1_555
V10_7 V21_3 2.490378 1_655
V10_7 V30_7 2.581990 1_555
V10_7 V30_3 2.581990 1_655
V10_7 V22_7 2.666621 1_555
V10_7 V22_3 2.666621 1_655
V10_7 V4_7 2.674895 1_555
V10_7 V4_3 2.674895 1_655
V10_7 V1_7 2.992112 1_555
V11_0 V31_0 2.476725 1_555
V11_0 V31_4 2.476725 1_555
V11_0 V23_4 2.560896 1_555
V11_0 V23_0 2.560896 1_555
V11_0 V20_1 2.582583 1_555
V11_0 V20_5 2.582583 1_555
V11_0 V5_4 2.710305 1_555
V11_0 V5_0 2.710305 1_555
V11_1 V31_1 2.476725 1_555
V11_1 V31_5 2.476725 1_555
V11_1 V23_1 2.560896 1_555
V11_1 V23_5 2.560896 1_555
V11_1 V20_4 2.582583 1_556
V11_1 V20_0 2.582583 1_556
V11_1 V5_5 2.710305 1_555
V11_1 V5_1 2.710305 1_555
V11_2 V31_2 2.476725 1_555
V11_2 V31_6 2.476725 1_555
V11_2 V23_6 2.560896 1_555
V11_2 V23_2 2.560896 1_555
V11_2 V20_3 2.582583 1_555
V11_2 V20_7 2.582583 1_555
V11_2 V5_6 2.710305 1_555
V11_2 V5_2 2.710305 1_555
V11_3 V31_3 2.476725 1_555
V11_3 V31_7 2.476725 1_555
V11_3 V23_7 2.560896 1_555
V11_3 V23_3 2.560896 1_555
V11_3 V20_6 2.582583 1_556
V11_3 V20_2 2.582583 1_556
V11_3 V5_3 2.710305 1_555
V11_3 V5_7 2.710305 1_555
V11_4 V31_4 2.476725 1_555
V11_4 V31_0 2.476725 1_655
V11_4 V23_0 2.560896 1_655
V11_4 V23_4 2.560896 1_555
V11_4 V20_5 2.582583 1_555
V11_4 V20_1 2.582583 1_655
V11_4 V5_0 2.710305 1_655
V11_4 V5_4 2.710305 1_555
V11_5 V31_1 2.476725 1_655
V11_5 V31_5 2.476725 1_555
V11_5 V23_5 2.560896 1_555
V11_5 V23_1 2.560896 1_655
V11_5 V20_4 2.582583 1_556
V11_5 V20_0 2.582583 1_656
V11_5 V5_5 2.710305 1_555
V11_5 V5_1 2.710305 1_655
V11_6 V31_2 2.476725 1_655
V11_6 V31_6 2.476725 1_555
V11_6 V23_6 2.560896 1_555
V11_6 V23_2 2.560896 1_655
V11_6 V20_3 2.582583 1_655
V11_6 V20_7 2.582583 1_555
V11_6 V5_6 2.710305 1_555
V11_6 V5_2 2.710305 1_655
V11_7 V31_3 2.476725 1_655
V11_7 V31_7 2.476725 1_555
V11_7 V23_7 2.560896 1_555
V11_7 V23_3 2.560896 1_655
V11_7 V20_2 2.582583 1_656
V11_7 V20_6 2.582583 1_556
V11_7 V5_7 2.710305 1_555
V11_7 V5_3 2.710305 1_655
V12_0 V18_6 2.520039 1_445
V12_0 V18_2 2.520039 1_545
V12_0 V24_0 2.524154 1_555
V12_0 V24_4 2.524154 1_455
V12_0 V16_0 2.591526 1_555
V12_0 V16_4 2.591526 1_455
V12_0 V2_4 2.629362 1_455
V12_0 V2_0 2.629362 1_555
V12_1 V18_3 2.520039 1_545
V12_1 V18_7 2.520039 1_445
V12_1 V24_1 2.524154 1_555
V12_1 V24_5 2.524154 1_455
V12_1 V16_5 2.591526 1_455
V12_1 V16_1 2.591526 1_555
V12_1 V2_1 2.629362 1_555
V12_1 V2_5 2.629362 1_455
V12_2 V18_0 2.520039 1_555
V12_2 V18_4 2.520039 1_455
V12_2 V24_2 2.524154 1_555
V12_2 V24_6 2.524154 1_455
V12_2 V16_6 2.591526 1_455
V12_2 V16_2 2.591526 1_555
V12_2 V2_6 2.629362 1_455
V12_2 V2_2 2.629362 1_555
V12_3 V18_5 2.520039 1_455
V12_3 V18_1 2.520039 1_555
V12_3 V24_3 2.524154 1_555
V12_3 V24_7 2.524154 1_455
V12_3 V16_3 2.591526 1_555
V12_3 V16_7 2.591526 1_455
V12_3 V2_3 2.629362 1_555
V12_3 V2_7 2.629362 1_455
V12_4 V18_6 2.520039 1_545
V12_4 V18_2 2.520039 1_545
V12_4 V24_0 2.524154 1_555
V12_4 V24_4 2.524154 1_555
V12_4 V16_0 2.591526 1_555
V12_4 V16_4 2.591526 1_555
V12_4 V2_4 2.629362 1_555
V12_4 V2_0 2.629362 1_555
V12_5 V18_3 2.520039 1_545
V12_5 V18_7 2.520039 1_545
V12_5 V24_5 2.524154 1_555
V12_5 V24_1 2.524154 1_555
V12_5 V16_1 2.591526 1_555
V12_5 V16_5 2.591526 1_555
V12_5 V2_5 2.629362 1_555
V12_5 V2_1 2.629362 1_555
V12_6 V18_4 2.520039 1_555
V12_6 V18_0 2.520039 1_555
V12_6 V24_2 2.524154 1_555
V12_6 V24_6 2.524154 1_555
V12_6 V16_6 2.591526 1_555
V12_6 V16_2 2.591526 1_555
V12_6 V2_2 2.629362 1_555
V12_6 V2_6 2.629362 1_555
V12_7 V18_5 2.520039 1_555
V12_7 V18_1 2.520039 1_555
V12_7 V24_3 2.524154 1_555
V12_7 V24_7 2.524154 1_555
V12_7 V16_7 2.591526 1_555
V12_7 V16_3 2.591526 1_555
V12_7 V2_3 2.629362 1_555
V12_7 V2_7 2.629362 1_555
V13_0 V25_4 2.465632 1_455
V13_0 V25_0 2.465632 1_555
V13_0 V19_2 2.542375 1_545
V13_0 V19_6 2.542375 1_445
V13_0 V17_4 2.634495 1_455
V13_0 V17_0 2.634495 1_555
V13_0 V3_4 2.711750 1_455
V13_0 V3_0 2.711750 1_555
V13_1 V25_1 2.465632 1_555
V13_1 V25_5 2.465632 1_455
V13_1 V19_7 2.542375 1_445
V13_1 V19_3 2.542375 1_545
V13_1 V17_1 2.634495 1_555
V13_1 V17_5 2.634495 1_455
V13_1 V3_5 2.711750 1_455
V13_1 V3_1 2.711750 1_555
V13_2 V25_2 2.465632 1_555
V13_2 V25_6 2.465632 1_455
V13_2 V19_0 2.542375 1_555
V13_2 V19_4 2.542375 1_455
V13_2 V17_2 2.634495 1_555
V13_2 V17_6 2.634495 1_455
V13_2 V3_6 2.711750 1_455
V13_2 V3_2 2.711750 1_555
V13_3 V25_7 2.465632 1_455
V13_3 V25_3 2.465632 1_555
V13_3 V19_1 2.542375 1_555
V13_3 V19_5 2.542375 1_455
V13_3 V17_3 2.634495 1_555
V13_3 V17_7 2.634495 1_455
V13_3 V3_3 2.711750 1_555
V13_3 V3_7 2.711750 1_455
V13_4 V25_0 2.465632 1_555
V13_4 V25_4 2.465632 1_555
V13_4 V19_2 2.542375 1_545
V13_4 V19_6 2.542375 1_545
V13_4 V17_4 2.634495 1_555
V13_4 V17_0 2.634495 1_555
V13_4 V3_4 2.711750 1_555
V13_4 V3_0 2.711750 1_555
V13_5 V25_1 2.465632 1_555
V13_5 V25_5 2.465632 1_555
V13_5 V19_3 2.542375 1_545
V13_5 V19_7 2.542375 1_545
V13_5 V17_1 2.634495 1_555
V13_5 V17_5 2.634495 1_555
V13_5 V3_5 2.711750 1_555
V13_5 V3_1 2.711750 1_555
V13_6 V25_2 2.465632 1_555
V13_6 V25_6 2.465632 1_555
V13_6 V19_0 2.542375 1_555
V13_6 V19_4 2.542375 1_555
V13_6 V17_6 2.634495 1_555
V13_6 V17_2 2.634495 1_555
V13_6 V3_6 2.711750 1_555
V13_6 V3_2 2.711750 1_555
V13_7 V25_3 2.465632 1_555
V13_7 V25_7 2.465632 1_555
V13_7 V19_1 2.542375 1_555
V13_7 V19_5 2.542375 1_555
V13_7 V17_3 2.634495 1_555
V13_7 V17_7 2.634495 1_555
V13_7 V3_3 2.711750 1_555
V13_7 V3_7 2.711750 1_555
V14_0 V26_4 2.465632 1_455
V14_0 V26_0 2.465632 1_555
V14_0 V16_2 2.542375 1_555
V14_0 V16_6 2.542375 1_455
V14_0 V18_0 2.634495 1_555
V14_0 V18_4 2.634495 1_455
V14_1 V26_1 2.465632 1_555
V14_1 V26_5 2.465632 1_455
V14_1 V16_3 2.542375 1_555
V14_1 V16_7 2.542375 1_455
V14_1 V18_1 2.634495 1_555
V14_1 V18_5 2.634495 1_455
V14_2 V26_2 2.465632 1_555
V14_2 V26_6 2.465632 1_455
V14_2 V16_0 2.542375 1_565
V14_2 V16_4 2.542375 1_465
V14_2 V18_2 2.634495 1_555
V14_2 V18_6 2.634495 1_455
V14_3 V26_3 2.465632 1_555
V14_3 V26_7 2.465632 1_455
V14_3 V16_1 2.542375 1_565
V14_3 V16_5 2.542375 1_465
V14_3 V18_3 2.634495 1_555
V14_3 V18_7 2.634495 1_455
V14_4 V26_0 2.465632 1_555
V14_4 V26_4 2.465632 1_555
V14_4 V16_2 2.542375 1_555
V14_4 V16_6 2.542375 1_555
V14_4 V18_4 2.634495 1_555
V14_4 V18_0 2.634495 1_555
V14_5 V26_1 2.465632 1_555
V14_5 V26_5 2.465632 1_555
V14_5 V16_7 2.542375 1_555
V14_5 V16_3 2.542375 1_555
V14_5 V18_1 2.634495 1_555
V14_5 V18_5 2.634495 1_555
V14_6 V26_6 2.465632 1_555
V14_6 V26_2 2.465632 1_555
V14_6 V16_0 2.542375 1_565
V14_6 V16_4 2.542375 1_565
V14_6 V18_2 2.634495 1_555
V14_6 V18_6 2.634495 1_555
V14_7 V26_3 2.465632 1_555
V14_7 V26_7 2.465632 1_555
V14_7 V16_1 2.542375 1_565
V14_7 V16_5 2.542375 1_565
V14_7 V18_7 2.634495 1_555
V14_7 V18_3 2.634495 1_555
V15_0 V17_6 2.520039 1_455
V15_0 V17_2 2.520039 1_555
V15_0 V27_0 2.524154 1_555
V15_0 V27_4 2.524154 1_455
V15_0 V19_0 2.591526 1_555
V15_0 V19_4 2.591526 1_455
V15_0 V1_4 2.629362 1_455
V15_0 V1_0 2.629362 1_555
V15_1 V17_3 2.520039 1_555
V15_1 V17_7 2.520039 1_455
V15_1 V27_1 2.524154 1_555
V15_1 V27_5 2.524154 1_455
V15_1 V19_5 2.591526 1_455
V15_1 V19_1 2.591526 1_555
V15_1 V1_5 2.629362 1_455
V15_1 V1_1 2.629362 1_555
V15_2 V17_4 2.520039 1_465
V15_2 V17_0 2.520039 1_565
V15_2 V27_2 2.524154 1_555
V15_2 V27_6 2.524154 1_455
V15_2 V19_2 2.591526 1_555
V15_2 V19_6 2.591526 1_455
V15_2 V1_2 2.629362 1_555
V15_2 V1_6 2.629362 1_455
V15_3 V17_5 2.520039 1_465
V15_3 V17_1 2.520039 1_565
V15_3 V27_7 2.524154 1_455
V15_3 V27_3 2.524154 1_555
V15_3 V19_3 2.591526 1_555
V15_3 V19_7 2.591526 1_455
V15_3 V1_3 2.629362 1_555
V15_3 V1_7 2.629362 1_455
V15_4 V17_2 2.520039 1_555
V15_4 V17_6 2.520039 1_555
V15_4 V27_0 2.524154 1_555
V15_4 V27_4 2.524154 1_555
V15_4 V19_0 2.591526 1_555
V15_4 V19_4 2.591526 1_555
V15_4 V1_4 2.629362 1_555
V15_4 V1_0 2.629362 1_555
V15_5 V17_3 2.520039 1_555
V15_5 V17_7 2.520039 1_555
V15_5 V27_5 2.524154 1_555
V15_5 V27_1 2.524154 1_555
V15_5 V19_5 2.591526 1_555
V15_5 V19_1 2.591526 1_555
V15_5 V1_5 2.629362 1_555
V15_5 V1_1 2.629362 1_555
V15_6 V17_0 2.520039 1_565
V15_6 V17_4 2.520039 1_565
V15_6 V27_2 2.524154 1_555
V15_6 V27_6 2.524154 1_555
V15_6 V19_2 2.591526 1_555
V15_6 V19_6 2.591526 1_555
V15_6 V1_2 2.629362 1_555
V15_6 V1_6 2.629362 1_555
V15_7 V17_1 2.520039 1_565
V15_7 V17_5 2.520039 1_565
V15_7 V27_3 2.524154 1_555
V15_7 V27_7 2.524154 1_555
V15_7 V19_3 2.591526 1_555
V15_7 V19_7 2.591526 1_555
V15_7 V1_3 2.629362 1_555
V15_7 V1_7 2.629362 1_555
V16_0 V28_0 2.489667 1_555
V16_0 V28_4 2.489667 1_555
V16_0 V6_4 2.705878 1_555
V16_0 V6_0 2.705878 1_555
V16_1 V28_1 2.489667 1_555
V16_1 V28_5 2.489667 1_555
V16_1 V6_5 2.705878 1_555
V16_1 V6_1 2.705878 1_555
V16_2 V28_6 2.489667 1_555
V16_2 V28_2 2.489667 1_555
V16_2 V6_2 2.705878 1_555
V16_2 V6_6 2.705878 1_555
V16_3 V28_7 2.489667 1_555
V16_3 V28_3 2.489667 1_555
V16_3 V6_7 2.705878 1_555
V16_3 V6_3 2.705878 1_555
V16_4 V28_0 2.489667 1_655
V16_4 V28_4 2.489667 1_555
V16_4 V6_4 2.705878 1_555
V16_4 V6_0 2.705878 1_655
V16_5 V28_1 2.489667 1_655
V16_5 V28_5 2.489667 1_555
V16_5 V6_5 2.705878 1_555
V16_5 V6_1 2.705878 1_655
V16_6 V28_6 2.489667 1_555
V16_6 V28_2 2.489667 1_655
V16_6 V6_6 2.705878 1_555
V16_6 V6_2 2.705878 1_655
V16_7 V28_3 2.489667 1_655
V16_7 V28_7 2.489667 1_555
V16_7 V6_3 2.705878 1_655
V16_7 V6_7 2.705878 1_555
V17_0 V29_4 2.569931 1_555
V17_0 V29_0 2.569931 1_555
V17_0 V7_4 2.674907 1_555
V17_0 V7_0 2.674907 1_555
V17_0 V1_2 2.994270 1_545
V17_1 V29_1 2.569931 1_555
V17_1 V29_5 2.569931 1_555
V17_1 V7_1 2.674907 1_555
V17_1 V7_5 2.674907 1_555
V17_1 V1_3 2.994270 1_545
V17_2 V29_2 2.569931 1_555
V17_2 V29_6 2.569931 1_555
V17_2 V7_2 2.674907 1_555
V17_2 V7_6 2.674907 1_555
V17_2 V1_0 2.994270 1_555
V17_3 V29_3 2.569931 1_555
V17_3 V29_7 2.569931 1_555
V17_3 V7_3 2.674907 1_555
V17_3 V7_7 2.674907 1_555
V17_3 V1_1 2.994270 1_555
V17_4 V29_4 2.569931 1_555
V17_4 V29_0 2.569931 1_655
V17_4 V7_0 2.674907 1_655
V17_4 V7_4 2.674907 1_555
V17_4 V1_6 2.994270 1_545
V17_5 V29_5 2.569931 1_555
V17_5 V29_1 2.569931 1_655
V17_5 V7_5 2.674907 1_555
V17_5 V7_1 2.674907 1_655
V17_5 V1_7 2.994270 1_545
V17_6 V29_2 2.569931 1_655
V17_6 V29_6 2.569931 1_555
V17_6 V7_6 2.674907 1_555
V17_6 V7_2 2.674907 1_655
V17_6 V1_4 2.994270 1_555
V17_7 V29_7 2.569931 1_555
V17_7 V29_3 2.569931 1_655
V17_7 V7_3 2.674907 1_655
V17_7 V7_7 2.674907 1_555
V17_7 V1_5 2.994270 1_555
V18_0 V30_0 2.569931 1_555
V18_0 V30_4 2.569931 1_555
V18_0 V4_0 2.674907 1_555
V18_0 V4_4 2.674907 1_555
V18_0 V2_2 2.994270 1_555
V18_1 V30_1 2.569931 1_555
V18_1 V30_5 2.569931 1_555
V18_1 V4_1 2.674907 1_555
V18_1 V4_5 2.674907 1_555
V18_1 V2_3 2.994270 1_555
V18_2 V30_2 2.569931 1_555
V18_2 V30_6 2.569931 1_555
V18_2 V4_2 2.674907 1_555
V18_2 V4_6 2.674907 1_555
V18_2 V2_0 2.994270 1_565
V18_3 V30_3 2.569931 1_555
V18_3 V30_7 2.569931 1_555
V18_3 V4_3 2.674907 1_555
V18_3 V4_7 2.674907 1_555
V18_3 V2_1 2.994270 1_565
V18_4 V30_4 2.569931 1_555
V18_4 V30_0 2.569931 1_655
V18_4 V4_4 2.674907 1_555
V18_4 V4_0 2.674907 1_655
V18_4 V2_6 2.994270 1_555
V18_5 V30_1 2.569931 1_655
V18_5 V30_5 2.569931 1_555
V18_5 V4_1 2.674907 1_655
V18_5 V4_5 2.674907 1_555
V18_5 V2_7 2.994270 1_555
V18_6 V30_6 2.569931 1_555
V18_6 V30_2 2.569931 1_655
V18_6 V4_6 2.674907 1_555
V18_6 V4_2 2.674907 1_655
V18_6 V2_4 2.994270 1_565
V18_7 V30_3 2.569931 1_655
V18_7 V30_7 2.569931 1_555
V18_7 V4_3 2.674907 1_655
V18_7 V4_7 2.674907 1_555
V18_7 V2_5 2.994270 1_565
V19_0 V31_0 2.489667 1_555
V19_0 V31_4 2.489667 1_555
V19_0 V5_0 2.705878 1_555
V19_0 V5_4 2.705878 1_555
V19_1 V31_5 2.489667 1_555
V19_1 V31_1 2.489667 1_555
V19_1 V5_1 2.705878 1_555
V19_1 V5_5 2.705878 1_555
V19_2 V31_6 2.489667 1_555
V19_2 V31_2 2.489667 1_555
V19_2 V5_2 2.705878 1_555
V19_2 V5_6 2.705878 1_555
V19_3 V31_7 2.489667 1_555
V19_3 V31_3 2.489667 1_555
V19_3 V5_7 2.705878 1_555
V19_3 V5_3 2.705878 1_555
V19_4 V31_4 2.489667 1_555
V19_4 V31_0 2.489667 1_655
V19_4 V5_0 2.705878 1_655
V19_4 V5_4 2.705878 1_555
V19_5 V31_1 2.489667 1_655
V19_5 V31_5 2.489667 1_555
V19_5 V5_1 2.705878 1_655
V19_5 V5_5 2.705878 1_555
V19_6 V31_2 2.489667 1_655
V19_6 V31_6 2.489667 1_555
V19_6 V5_2 2.705878 1_655
V19_6 V5_6 2.705878 1_555
V19_7 V31_3 2.489667 1_655
V19_7 V31_7 2.489667 1_555
V19_7 V5_3 2.705878 1_655
V19_7 V5_7 2.705878 1_555
V20_0 V26_4 2.507981 1_455
V20_0 V26_0 2.507981 1_555
V20_0 V8_0 2.560896 1_555
V20_0 V8_4 2.560896 1_455
V20_1 V26_5 2.507981 1_455
V20_1 V26_1 2.507981 1_555
V20_1 V8_5 2.560896 1_455
V20_1 V8_1 2.560896 1_555
V20_2 V26_2 2.507981 1_555
V20_2 V26_6 2.507981 1_455
V20_2 V8_6 2.560896 1_455
V20_2 V8_2 2.560896 1_555
V20_3 V26_3 2.507981 1_555
V20_3 V26_7 2.507981 1_455
V20_3 V8_3 2.560896 1_555
V20_3 V8_7 2.560896 1_455
V20_4 V26_4 2.507981 1_555
V20_4 V26_0 2.507981 1_555
V20_4 V8_4 2.560896 1_555
V20_4 V8_0 2.560896 1_555
V20_5 V26_5 2.507981 1_555
V20_5 V26_1 2.507981 1_555
V20_5 V8_1 2.560896 1_555
V20_5 V8_5 2.560896 1_555
V20_6 V26_6 2.507981 1_555
V20_6 V26_2 2.507981 1_555
V20_6 V8_2 2.560896 1_555
V20_6 V8_6 2.560896 1_555
V20_7 V26_3 2.507981 1_555
V20_7 V26_7 2.507981 1_555
V20_7 V8_7 2.560896 1_555
V20_7 V8_3 2.560896 1_555
V21_0 V27_0 2.477763 1_555
V21_0 V27_4 2.477763 1_455
V21_0 V9_0 2.666621 1_555
V21_0 V9_4 2.666621 1_455
V21_1 V27_1 2.477763 1_555
V21_1 V27_5 2.477763 1_455
V21_1 V9_1 2.666621 1_555
V21_1 V9_5 2.666621 1_455
V21_2 V27_2 2.477763 1_555
V21_2 V27_6 2.477763 1_455
V21_2 V9_6 2.666621 1_455
V21_2 V9_2 2.666621 1_555
V21_3 V27_7 2.477763 1_455
V21_3 V27_3 2.477763 1_555
V21_3 V9_3 2.666621 1_555
V21_3 V9_7 2.666621 1_455
V21_4 V27_0 2.477763 1_555
V21_4 V27_4 2.477763 1_555
V21_4 V9_4 2.666621 1_555
V21_4 V9_0 2.666621 1_555
V21_5 V27_5 2.477763 1_555
V21_5 V27_1 2.477763 1_555
V21_5 V9_5 2.666621 1_555
V21_5 V9_1 2.666621 1_555
V21_6 V27_2 2.477763 1_555
V21_6 V27_6 2.477763 1_555
V21_6 V9_6 2.666621 1_555
V21_6 V9_2 2.666621 1_555
V21_7 V27_3 2.477763 1_555
V21_7 V27_7 2.477763 1_555
V21_7 V9_3 2.666621 1_555
V21_7 V9_7 2.666621 1_555
V22_0 V24_4 2.477763 1_455
V22_0 V24_0 2.477763 1_555
V22_0 V9_0 2.490378 1_555
V22_0 V9_4 2.490378 1_455
V22_0 V2_0 2.650955 1_555
V22_0 V2_4 2.650955 1_455
V22_1 V24_1 2.477763 1_555
V22_1 V24_5 2.477763 1_455
V22_1 V9_1 2.490378 1_555
V22_1 V9_5 2.490378 1_455
V22_1 V2_1 2.650955 1_555
V22_1 V2_5 2.650955 1_455
V22_2 V24_2 2.477763 1_555
V22_2 V24_6 2.477763 1_455
V22_2 V9_2 2.490378 1_555
V22_2 V9_6 2.490378 1_455
V22_2 V2_6 2.650955 1_455
V22_2 V2_2 2.650955 1_555
V22_3 V24_7 2.477763 1_455
V22_3 V24_3 2.477763 1_555
V22_3 V9_3 2.490378 1_555
V22_3 V9_7 2.490378 1_455
V22_3 V2_7 2.650955 1_455
V22_3 V2_3 2.650955 1_555
V22_4 V24_0 2.477763 1_555
V22_4 V24_4 2.477763 1_555
V22_4 V9_0 2.490378 1_555
V22_4 V9_4 2.490378 1_555
V22_4 V2_4 2.650955 1_555
V22_4 V2_0 2.650955 1_555
V22_5 V24_1 2.477763 1_555
V22_5 V24_5 2.477763 1_555
V22_5 V9_5 2.490378 1_555
V22_5 V9_1 2.490378 1_555
V22_5 V2_5 2.650955 1_555
V22_5 V2_1 2.650955 1_555
V22_6 V24_2 2.477763 1_555
V22_6 V24_6 2.477763 1_555
V22_6 V9_2 2.490378 1_555
V22_6 V9_6 2.490378 1_555
V22_6 V2_2 2.650955 1_555
V22_6 V2_6 2.650955 1_555
V22_7 V24_7 2.477763 1_555
V22_7 V24_3 2.477763 1_555
V22_7 V9_3 2.490378 1_555
V22_7 V9_7 2.490378 1_555
V22_7 V2_7 2.650955 1_555
V22_7 V2_3 2.650955 1_555
V23_0 V25_4 2.507981 1_455
V23_0 V25_0 2.507981 1_555
V23_0 V8_5 2.582583 1_455
V23_0 V8_1 2.582583 1_555
V23_0 V3_0 2.692447 1_555
V23_0 V3_4 2.692447 1_455
V23_1 V25_1 2.507981 1_555
V23_1 V25_5 2.507981 1_455
V23_1 V8_0 2.582583 1_556
V23_1 V8_4 2.582583 1_456
V23_1 V3_1 2.692447 1_555
V23_1 V3_5 2.692447 1_455
V23_2 V25_2 2.507981 1_555
V23_2 V25_6 2.507981 1_455
V23_2 V8_3 2.582583 1_555
V23_2 V8_7 2.582583 1_455
V23_2 V3_6 2.692447 1_455
V23_2 V3_2 2.692447 1_555
V23_3 V25_7 2.507981 1_455
V23_3 V25_3 2.507981 1_555
V23_3 V8_2 2.582583 1_556
V23_3 V8_6 2.582583 1_456
V23_3 V3_3 2.692447 1_555
V23_3 V3_7 2.692447 1_455
V23_4 V25_4 2.507981 1_555
V23_4 V25_0 2.507981 1_555
V23_4 V8_1 2.582583 1_555
V23_4 V8_5 2.582583 1_555
V23_4 V3_4 2.692447 1_555
V23_4 V3_0 2.692447 1_555
V23_5 V25_5 2.507981 1_555
V23_5 V25_1 2.507981 1_555
V23_5 V8_4 2.582583 1_556
V23_5 V8_0 2.582583 1_556
V23_5 V3_5 2.692447 1_555
V23_5 V3_1 2.692447 1_555
V23_6 V25_6 2.507981 1_555
V23_6 V25_2 2.507981 1_555
V23_6 V8_3 2.582583 1_555
V23_6 V8_7 2.582583 1_555
V23_6 V3_2 2.692447 1_555
V23_6 V3_6 2.692447 1_555
V23_7 V25_3 2.507981 1_555
V23_7 V25_7 2.507981 1_555
V23_7 V8_2 2.582583 1_556
V23_7 V8_6 2.582583 1_556
V23_7 V3_7 2.692447 1_555
V23_7 V3_3 2.692447 1_555
V24_0 V2_0 2.823450 1_555
V24_1 V2_1 2.823450 1_555
V24_2 V2_2 2.823450 1_555
V24_3 V2_3 2.823450 1_555
V24_4 V2_4 2.823450 1_555
V24_5 V2_5 2.823450 1_555
V24_6 V2_6 2.823450 1_555
V24_7 V2_7 2.823450 1_555
V28_0 V8_0 2.476725 1_555
V28_0 V8_4 2.476725 1_455
V28_1 V8_5 2.476725 1_455
V28_1 V8_1 2.476725 1_555
V28_2 V8_6 2.476725 1_455
V28_2 V8_2 2.476725 1_555
V28_3 V8_7 2.476725 1_455
V28_3 V8_3 2.476725 1_555
V28_4 V8_0 2.476725 1_555
V28_4 V8_4 2.476725 1_555
V28_5 V8_1 2.476725 1_555
V28_5 V8_5 2.476725 1_555
V28_6 V8_2 2.476725 1_555
V28_6 V8_6 2.476725 1_555
V28_7 V8_7 2.476725 1_555
V28_7 V8_3 2.476725 1_555
V29_0 V2_4 2.578191 1_455
V29_0 V2_0 2.578191 1_555
V29_0 V9_4 2.581990 1_455
V29_0 V9_0 2.581990 1_555
V29_1 V2_1 2.578191 1_555
V29_1 V2_5 2.578191 1_455
V29_1 V9_1 2.581990 1_555
V29_1 V9_5 2.581990 1_455
V29_2 V2_6 2.578191 1_455
V29_2 V2_2 2.578191 1_555
V29_2 V9_2 2.581990 1_555
V29_2 V9_6 2.581990 1_455
V29_3 V2_3 2.578191 1_555
V29_3 V2_7 2.578191 1_455
V29_3 V9_3 2.581990 1_555
V29_3 V9_7 2.581990 1_455
V29_4 V2_4 2.578191 1_555
V29_4 V2_0 2.578191 1_555
V29_4 V9_4 2.581990 1_555
V29_4 V9_0 2.581990 1_555
V29_5 V2_1 2.578191 1_555
V29_5 V2_5 2.578191 1_555
V29_5 V9_1 2.581990 1_555
V29_5 V9_5 2.581990 1_555
V29_6 V2_2 2.578191 1_555
V29_6 V2_6 2.578191 1_555
V29_6 V9_2 2.581990 1_555
V29_6 V9_6 2.581990 1_555
V29_7 V2_3 2.578191 1_555
V29_7 V2_7 2.578191 1_555
V29_7 V9_3 2.581990 1_555
V29_7 V9_7 2.581990 1_555
N0_0 V24_0 1.918686 1_555
N0_0 V26_0 1.920639 1_555
N0_0 V6_0 2.031197 1_555
N0_0 V6_4 2.031197 1_555
N0_0 V4_0 2.039359 1_555
N0_0 V4_4 2.039359 1_555
N0_1 V24_1 1.918686 1_555
N0_1 V26_1 1.920639 1_555
N0_1 V6_1 2.031197 1_555
N0_1 V6_5 2.031197 1_555
N0_1 V4_1 2.039359 1_555
N0_1 V4_5 2.039359 1_555
N0_2 V24_2 1.918686 1_555
N0_2 V26_2 1.920639 1_555
N0_2 V6_6 2.031197 1_555
N0_2 V6_2 2.031197 1_555
N0_2 V4_2 2.039359 1_555
N0_2 V4_6 2.039359 1_555
N0_3 V24_3 1.918686 1_555
N0_3 V26_3 1.920639 1_555
N0_3 V6_7 2.031197 1_555
N0_3 V6_3 2.031197 1_555
N0_3 V4_7 2.039359 1_555
N0_3 V4_3 2.039359 1_555
N0_4 V24_4 1.918686 1_555
N0_4 V26_4 1.920639 1_555
N0_4 V6_0 2.031197 1_655
N0_4 V6_4 2.031197 1_555
N0_4 V4_4 2.039359 1_555
N0_4 V4_0 2.039359 1_655
N0_5 V24_5 1.918686 1_555
N0_5 V26_5 1.920639 1_555
N0_5 V6_1 2.031197 1_655
N0_5 V6_5 2.031197 1_555
N0_5 V4_1 2.039359 1_655
N0_5 V4_5 2.039359 1_555
N0_6 V24_6 1.918686 1_555
N0_6 V26_6 1.920639 1_555
N0_6 V6_6 2.031197 1_555
N0_6 V6_2 2.031197 1_655
N0_6 V4_2 2.039359 1_655
N0_6 V4_6 2.039359 1_555
N0_7 V24_7 1.918686 1_555
N0_7 V26_7 1.920639 1_555
N0_7 V6_3 2.031197 1_655
N0_7 V6_7 2.031197 1_555
N0_7 V4_7 2.039359 1_555
N0_7 V4_3 2.039359 1_655
N1_0 V27_0 1.918686 1_555
N1_0 V25_0 1.920639 1_555
N1_0 V5_4 2.031197 1_555
N1_0 V5_0 2.031197 1_555
N1_0 V7_4 2.039359 1_555
N1_0 V7_0 2.039359 1_555
N1_1 V27_1 1.918686 1_555
N1_1 V25_1 1.920639 1_555
N1_1 V5_5 2.031197 1_555
N1_1 V5_1 2.031197 1_555
N1_1 V7_1 2.039359 1_555
N1_1 V7_5 2.039359 1_555
N1_2 V27_2 1.918686 1_555
N1_2 V25_2 1.920639 1_555
N1_2 V5_2 2.031197 1_555
N1_2 V5_6 2.031197 1_555
N1_2 V7_2 2.039359 1_555
N1_2 V7_6 2.039359 1_555
N1_3 V27_3 1.918686 1_555
N1_3 V25_3 1.920639 1_555
N1_3 V5_3 2.031197 1_555
N1_3 V5_7 2.031197 1_555
N1_3 V7_7 2.039359 1_555
N1_3 V7_3 2.039359 1_555
N1_4 V27_4 1.918686 1_555
N1_4 V25_4 1.920639 1_555
N1_4 V5_0 2.031197 1_655
N1_4 V5_4 2.031197 1_555
N1_4 V7_4 2.039359 1_555
N1_4 V7_0 2.039359 1_655
N1_5 V27_5 1.918686 1_555
N1_5 V25_5 1.920639 1_555
N1_5 V5_5 2.031197 1_555
N1_5 V5_1 2.031197 1_655
N1_5 V7_1 2.039359 1_655
N1_5 V7_5 2.039359 1_555
N1_6 V27_6 1.918686 1_555
N1_6 V25_6 1.920639 1_555
N1_6 V5_2 2.031197 1_655
N1_6 V5_6 2.031197 1_555
N1_6 V7_2 2.039359 1_655
N1_6 V7_6 2.039359 1_555
N1_7 V27_7 1.918686 1_555
N1_7 V25_7 1.920639 1_555
N1_7 V5_3 2.031197 1_655
N1_7 V5_7 2.031197 1_555
N1_7 V7_7 2.039359 1_555
N1_7 V7_3 2.039359 1_655
N2_0 V31_3 1.930846 1_544
N2_0 V28_0 1.930846 1_555
N2_0 V3_1 2.027580 1_554
N2_0 V3_5 2.027580 1_454
N2_0 V0_2 2.027580 1_545
N2_0 V0_6 2.027580 1_445
N2_1 V28_1 1.930846 1_555
N2_1 V31_2 1.930846 1_545
N2_1 V3_0 2.027580 1_555
N2_1 V3_4 2.027580 1_455
N2_1 V0_3 2.027580 1_545
N2_1 V0_7 2.027580 1_445
N2_2 V31_1 1.930846 1_554
N2_2 V28_2 1.930846 1_555
N2_2 V0_0 2.027580 1_555
N2_2 V3_7 2.027580 1_454
N2_2 V3_3 2.027580 1_554
N2_2 V0_4 2.027580 1_455
N2_3 V28_3 1.930846 1_555
N2_3 V31_0 1.930846 1_555
N2_3 V3_6 2.027580 1_455
N2_3 V3_2 2.027580 1_555
N2_3 V0_5 2.027580 1_455
N2_3 V0_1 2.027580 1_555
N2_4 V31_7 1.930846 1_544
N2_4 V28_4 1.930846 1_555
N2_4 V3_1 2.027580 1_554
N2_4 V3_5 2.027580 1_554
N2_4 V0_2 2.027580 1_545
N2_4 V0_6 2.027580 1_545
N2_5 V28_5 1.930846 1_555
N2_5 V31_6 1.930846 1_545
N2_5 V3_0 2.027580 1_555
N2_5 V3_4 2.027580 1_555
N2_5 V0_3 2.027580 1_545
N2_5 V0_7 2.027580 1_545
N2_6 V31_5 1.930846 1_554
N2_6 V28_6 1.930846 1_555
N2_6 V0_0 2.027580 1_555
N2_6 V3_3 2.027580 1_554
N2_6 V3_7 2.027580 1_554
N2_6 V0_4 2.027580 1_555
N2_7 V28_7 1.930846 1_555
N2_7 V31_4 1.930846 1_555
N2_7 V3_2 2.027580 1_555
N2_7 V3_6 2.027580 1_555
N2_7 V0_5 2.027580 1_555
N2_7 V0_1 2.027580 1_555
