# generated using pymatgen
data_Zn6Ru
_symmetry_space_group_name_H-M   'P 1'
_cell_length_a   15.62555002
_cell_length_b   15.62555002
_cell_length_c   15.62555002
_cell_angle_alpha   90.00000000
_cell_angle_beta   90.00000000
_cell_angle_gamma   90.00000000
_symmetry_Int_Tables_number   1
_chemical_formula_structural   Zn6Ru
_chemical_formula_sum   'Zn216 Ru36'
_cell_volume   3815.10012649
_cell_formula_units_Z   36
loop_
 _symmetry_equiv_pos_site_id
 _symmetry_equiv_pos_as_xyz
  1  'x, y, z'
loop_
 _atom_site_type_symbol
 _atom_site_label
 _atom_site_symmetry_multiplicity
 _atom_site_fract_x
 _atom_site_fract_y
 _atom_site_fract_z
 _atom_site_occupancy
  Zn  Zn0  1  0.11388098  0.45254265  0.47495064  1
  Zn  Zn1  1  0.38611902  0.54745735  0.97495064  1
  Zn  Zn2  1  0.88611902  0.95254265  0.02504936  1
  Zn  Zn3  1  0.61388098  0.04745735  0.52504936  1
  Zn  Zn4  1  0.45254265  0.47495064  0.11388098  1
  Zn  Zn5  1  0.54745735  0.97495064  0.38611902  1
  Zn  Zn6  1  0.95254265  0.02504936  0.88611902  1
  Zn  Zn7  1  0.04745735  0.52504936  0.61388098  1
  Zn  Zn8  1  0.47495064  0.11388098  0.45254265  1
  Zn  Zn9  1  0.97495064  0.38611902  0.54745735  1
  Zn  Zn10  1  0.02504936  0.88611902  0.95254265  1
  Zn  Zn11  1  0.52504936  0.61388098  0.04745735  1
  Zn  Zn12  1  0.63611902  0.27504936  0.29745735  1
  Zn  Zn13  1  0.36388098  0.77504936  0.20254265  1
  Zn  Zn14  1  0.86388098  0.72495064  0.79745735  1
  Zn  Zn15  1  0.13611902  0.22495064  0.70254265  1
  Zn  Zn16  1  0.29745735  0.63611902  0.27504936  1
  Zn  Zn17  1  0.20254265  0.36388098  0.77504936  1
  Zn  Zn18  1  0.79745735  0.86388098  0.72495064  1
  Zn  Zn19  1  0.70254265  0.13611902  0.22495064  1
  Zn  Zn20  1  0.27504936  0.29745735  0.63611902  1
  Zn  Zn21  1  0.77504936  0.20254265  0.36388098  1
  Zn  Zn22  1  0.72495064  0.79745735  0.86388098  1
  Zn  Zn23  1  0.22495064  0.70254265  0.13611902  1
  Zn  Zn24  1  0.14863350  0.03682342  0.68690466  1
  Zn  Zn25  1  0.35136650  0.96317658  0.18690466  1
  Zn  Zn26  1  0.85136650  0.53682342  0.81309534  1
  Zn  Zn27  1  0.64863350  0.46317658  0.31309534  1
  Zn  Zn28  1  0.03682342  0.68690466  0.14863350  1
  Zn  Zn29  1  0.96317658  0.18690466  0.35136650  1
  Zn  Zn30  1  0.53682342  0.81309534  0.85136650  1
  Zn  Zn31  1  0.46317658  0.31309534  0.64863350  1
  Zn  Zn32  1  0.68690466  0.14863350  0.03682342  1
  Zn  Zn33  1  0.18690466  0.35136650  0.96317658  1
  Zn  Zn34  1  0.81309534  0.85136650  0.53682342  1
  Zn  Zn35  1  0.31309534  0.64863350  0.46317658  1
  Zn  Zn36  1  0.60136650  0.06309534  0.71317658  1
  Zn  Zn37  1  0.39863350  0.56309534  0.78682342  1
  Zn  Zn38  1  0.89863350  0.93690466  0.21317658  1
  Zn  Zn39  1  0.10136650  0.43690466  0.28682342  1
  Zn  Zn40  1  0.71317658  0.60136650  0.06309534  1
  Zn  Zn41  1  0.78682342  0.39863350  0.56309534  1
  Zn  Zn42  1  0.21317658  0.89863350  0.93690466  1
  Zn  Zn43  1  0.28682342  0.10136650  0.43690466  1
  Zn  Zn44  1  0.06309534  0.71317658  0.60136650  1
  Zn  Zn45  1  0.56309534  0.78682342  0.39863350  1
  Zn  Zn46  1  0.93690466  0.21317658  0.89863350  1
  Zn  Zn47  1  0.43690466  0.28682342  0.10136650  1
  Zn  Zn48  1  0.21000480  0.33075909  0.35096303  1
  Zn  Zn49  1  0.28999520  0.66924091  0.85096303  1
  Zn  Zn50  1  0.78999520  0.83075909  0.14903697  1
  Zn  Zn51  1  0.71000480  0.16924091  0.64903697  1
  Zn  Zn52  1  0.33075909  0.35096303  0.21000480  1
  Zn  Zn53  1  0.66924091  0.85096303  0.28999520  1
  Zn  Zn54  1  0.83075909  0.14903697  0.78999520  1
  Zn  Zn55  1  0.16924091  0.64903697  0.71000480  1
  Zn  Zn56  1  0.35096303  0.21000480  0.33075909  1
  Zn  Zn57  1  0.85096303  0.28999520  0.66924091  1
  Zn  Zn58  1  0.14903697  0.78999520  0.83075909  1
  Zn  Zn59  1  0.64903697  0.71000480  0.16924091  1
  Zn  Zn60  1  0.53999520  0.39903697  0.41924091  1
  Zn  Zn61  1  0.46000480  0.89903697  0.08075909  1
  Zn  Zn62  1  0.96000480  0.60096303  0.91924091  1
  Zn  Zn63  1  0.03999520  0.10096303  0.58075909  1
  Zn  Zn64  1  0.41924091  0.53999520  0.39903697  1
  Zn  Zn65  1  0.08075909  0.46000480  0.89903697  1
  Zn  Zn66  1  0.91924091  0.96000480  0.60096303  1
  Zn  Zn67  1  0.58075909  0.03999520  0.10096303  1
  Zn  Zn68  1  0.39903697  0.41924091  0.53999520  1
  Zn  Zn69  1  0.89903697  0.08075909  0.46000480  1
  Zn  Zn70  1  0.60096303  0.91924091  0.96000480  1
  Zn  Zn71  1  0.10096303  0.58075909  0.03999520  1
  Zn  Zn72  1  0.28749470  0.27133848  0.47749468  1
  Zn  Zn73  1  0.21250530  0.72866152  0.97749468  1
  Zn  Zn74  1  0.71250530  0.77133848  0.02250532  1
  Zn  Zn75  1  0.78749470  0.22866152  0.52250532  1
  Zn  Zn76  1  0.27133848  0.47749468  0.28749470  1
  Zn  Zn77  1  0.72866152  0.97749468  0.21250530  1
  Zn  Zn78  1  0.77133848  0.02250532  0.71250530  1
  Zn  Zn79  1  0.22866152  0.52250532  0.78749470  1
  Zn  Zn80  1  0.47749468  0.28749470  0.27133848  1
  Zn  Zn81  1  0.97749468  0.21250530  0.72866152  1
  Zn  Zn82  1  0.02250532  0.71250530  0.77133848  1
  Zn  Zn83  1  0.52250532  0.78749470  0.22866152  1
  Zn  Zn84  1  0.46250530  0.27250532  0.47866152  1
  Zn  Zn85  1  0.53749470  0.77250532  0.02133848  1
  Zn  Zn86  1  0.03749470  0.72749468  0.97866152  1
  Zn  Zn87  1  0.96250530  0.22749468  0.52133848  1
  Zn  Zn88  1  0.47866152  0.46250530  0.27250532  1
  Zn  Zn89  1  0.02133848  0.53749470  0.77250532  1
  Zn  Zn90  1  0.97866152  0.03749470  0.72749468  1
  Zn  Zn91  1  0.52133848  0.96250530  0.22749468  1
  Zn  Zn92  1  0.27250532  0.47866152  0.46250530  1
  Zn  Zn93  1  0.77250532  0.02133848  0.53749470  1
  Zn  Zn94  1  0.72749468  0.97866152  0.03749470  1
  Zn  Zn95  1  0.22749468  0.52133848  0.96250530  1
  Zn  Zn96  1  0.28924796  0.13446383  0.72386431  1
  Zn  Zn97  1  0.21075204  0.86553617  0.22386431  1
  Zn  Zn98  1  0.71075204  0.63446383  0.77613569  1
  Zn  Zn99  1  0.78924796  0.36553617  0.27613569  1
  Zn  Zn100  1  0.13446383  0.72386431  0.28924796  1
  Zn  Zn101  1  0.86553617  0.22386431  0.21075204  1
  Zn  Zn102  1  0.63446383  0.77613569  0.71075204  1
  Zn  Zn103  1  0.36553617  0.27613569  0.78924796  1
  Zn  Zn104  1  0.72386431  0.28924796  0.13446383  1
  Zn  Zn105  1  0.22386431  0.21075204  0.86553617  1
  Zn  Zn106  1  0.77613569  0.71075204  0.63446383  1
  Zn  Zn107  1  0.27613569  0.78924796  0.36553617  1
  Zn  Zn108  1  0.46075204  0.02613569  0.61553617  1
  Zn  Zn109  1  0.53924796  0.52613569  0.88446383  1
  Zn  Zn110  1  0.03924796  0.97386431  0.11553617  1
  Zn  Zn111  1  0.96075204  0.47386431  0.38446383  1
  Zn  Zn112  1  0.61553617  0.46075204  0.02613569  1
  Zn  Zn113  1  0.88446383  0.53924796  0.52613569  1
  Zn  Zn114  1  0.11553617  0.03924796  0.97386431  1
  Zn  Zn115  1  0.38446383  0.96075204  0.47386431  1
  Zn  Zn116  1  0.02613569  0.61553617  0.46075204  1
  Zn  Zn117  1  0.52613569  0.88446383  0.53924796  1
  Zn  Zn118  1  0.97386431  0.11553617  0.03924796  1
  Zn  Zn119  1  0.47386431  0.38446383  0.96075204  1
  Zn  Zn120  1  0.14786490  0.74002329  0.46319510  1
  Zn  Zn121  1  0.35213510  0.25997671  0.96319510  1
  Zn  Zn122  1  0.85213510  0.24002329  0.03680490  1
  Zn  Zn123  1  0.64786490  0.75997671  0.53680490  1
  Zn  Zn124  1  0.74002329  0.46319510  0.14786490  1
  Zn  Zn125  1  0.25997671  0.96319510  0.35213510  1
  Zn  Zn126  1  0.24002329  0.03680490  0.85213510  1
  Zn  Zn127  1  0.75997671  0.53680490  0.64786490  1
  Zn  Zn128  1  0.46319510  0.14786490  0.74002329  1
  Zn  Zn129  1  0.96319510  0.35213510  0.25997671  1
  Zn  Zn130  1  0.03680490  0.85213510  0.24002329  1
  Zn  Zn131  1  0.53680490  0.64786490  0.75997671  1
  Zn  Zn132  1  0.60213510  0.28680490  0.00997671  1
  Zn  Zn133  1  0.39786490  0.78680490  0.49002329  1
  Zn  Zn134  1  0.89786490  0.71319510  0.50997671  1
  Zn  Zn135  1  0.10213510  0.21319510  0.99002329  1
  Zn  Zn136  1  0.00997671  0.60213510  0.28680490  1
  Zn  Zn137  1  0.49002329  0.39786490  0.78680490  1
  Zn  Zn138  1  0.50997671  0.89786490  0.71319510  1
  Zn  Zn139  1  0.99002329  0.10213510  0.21319510  1
  Zn  Zn140  1  0.28680490  0.00997671  0.60213510  1
  Zn  Zn141  1  0.78680490  0.49002329  0.39786490  1
  Zn  Zn142  1  0.71319510  0.50997671  0.89786490  1
  Zn  Zn143  1  0.21319510  0.99002329  0.10213510  1
  Zn  Zn144  1  0.13458802  0.01360458  0.47459741  1
  Zn  Zn145  1  0.36541198  0.98639542  0.97459741  1
  Zn  Zn146  1  0.86541198  0.51360458  0.02540259  1
  Zn  Zn147  1  0.63458802  0.48639542  0.52540259  1
  Zn  Zn148  1  0.01360458  0.47459741  0.13458802  1
  Zn  Zn149  1  0.98639542  0.97459741  0.36541198  1
  Zn  Zn150  1  0.51360458  0.02540259  0.86541198  1
  Zn  Zn151  1  0.48639542  0.52540259  0.63458802  1
  Zn  Zn152  1  0.47459741  0.13458802  0.01360458  1
  Zn  Zn153  1  0.97459741  0.36541198  0.98639542  1
  Zn  Zn154  1  0.02540259  0.86541198  0.51360458  1
  Zn  Zn155  1  0.52540259  0.63458802  0.48639542  1
  Zn  Zn156  1  0.61541198  0.27540259  0.73639542  1
  Zn  Zn157  1  0.38458802  0.77540259  0.76360458  1
  Zn  Zn158  1  0.88458802  0.72459741  0.23639542  1
  Zn  Zn159  1  0.11541198  0.22459741  0.26360458  1
  Zn  Zn160  1  0.73639542  0.61541198  0.27540259  1
  Zn  Zn161  1  0.76360458  0.38458802  0.77540259  1
  Zn  Zn162  1  0.23639542  0.88458802  0.72459741  1
  Zn  Zn163  1  0.26360458  0.11541198  0.22459741  1
  Zn  Zn164  1  0.27540259  0.73639542  0.61541198  1
  Zn  Zn165  1  0.77540259  0.76360458  0.38458802  1
  Zn  Zn166  1  0.72459741  0.23639542  0.88458802  1
  Zn  Zn167  1  0.22459741  0.26360458  0.11541198  1
  Zn  Zn168  1  0.81901425  0.93098575  0.37500000  1
  Zn  Zn169  1  0.68098575  0.06901425  0.87500000  1
  Zn  Zn170  1  0.18098575  0.43098575  0.12500000  1
  Zn  Zn171  1  0.31901425  0.56901425  0.62500000  1
  Zn  Zn172  1  0.93098575  0.37500000  0.81901425  1
  Zn  Zn173  1  0.06901425  0.87500000  0.68098575  1
  Zn  Zn174  1  0.43098575  0.12500000  0.18098575  1
  Zn  Zn175  1  0.56901425  0.62500000  0.31901425  1
  Zn  Zn176  1  0.37500000  0.81901425  0.93098575  1
  Zn  Zn177  1  0.87500000  0.68098575  0.06901425  1
  Zn  Zn178  1  0.12500000  0.18098575  0.43098575  1
  Zn  Zn179  1  0.62500000  0.31901425  0.56901425  1
  Zn  Zn180  1  0.70153190  0.04846810  0.37500000  1
  Zn  Zn181  1  0.79846810  0.95153190  0.87500000  1
  Zn  Zn182  1  0.29846810  0.54846810  0.12500000  1
  Zn  Zn183  1  0.20153190  0.45153190  0.62500000  1
  Zn  Zn184  1  0.04846810  0.37500000  0.70153190  1
  Zn  Zn185  1  0.95153190  0.87500000  0.79846810  1
  Zn  Zn186  1  0.54846810  0.12500000  0.29846810  1
  Zn  Zn187  1  0.45153190  0.62500000  0.20153190  1
  Zn  Zn188  1  0.37500000  0.70153190  0.04846810  1
  Zn  Zn189  1  0.87500000  0.79846810  0.95153190  1
  Zn  Zn190  1  0.12500000  0.29846810  0.54846810  1
  Zn  Zn191  1  0.62500000  0.20153190  0.45153190  1
  Zn  Zn192  1  0.97456074  0.77543926  0.37500000  1
  Zn  Zn193  1  0.52543926  0.22456074  0.87500000  1
  Zn  Zn194  1  0.02543926  0.27543926  0.12500000  1
  Zn  Zn195  1  0.47456074  0.72456074  0.62500000  1
  Zn  Zn196  1  0.77543926  0.37500000  0.97456074  1
  Zn  Zn197  1  0.22456074  0.87500000  0.52543926  1
  Zn  Zn198  1  0.27543926  0.12500000  0.02543926  1
  Zn  Zn199  1  0.72456074  0.62500000  0.47456074  1
  Zn  Zn200  1  0.37500000  0.97456074  0.77543926  1
  Zn  Zn201  1  0.87500000  0.52543926  0.22456074  1
  Zn  Zn202  1  0.12500000  0.02543926  0.27543926  1
  Zn  Zn203  1  0.62500000  0.47456074  0.72456074  1
  Zn  Zn204  1  0.16735993  0.58264007  0.37500000  1
  Zn  Zn205  1  0.33264007  0.41735993  0.87500000  1
  Zn  Zn206  1  0.83264007  0.08264007  0.12500000  1
  Zn  Zn207  1  0.66735993  0.91735993  0.62500000  1
  Zn  Zn208  1  0.58264007  0.37500000  0.16735993  1
  Zn  Zn209  1  0.41735993  0.87500000  0.33264007  1
  Zn  Zn210  1  0.08264007  0.12500000  0.83264007  1
  Zn  Zn211  1  0.91735993  0.62500000  0.66735993  1
  Zn  Zn212  1  0.37500000  0.16735993  0.58264007  1
  Zn  Zn213  1  0.87500000  0.33264007  0.41735993  1
  Zn  Zn214  1  0.12500000  0.83264007  0.08264007  1
  Zn  Zn215  1  0.62500000  0.66735993  0.91735993  1
  Ru  Ru0  1  0.20957866  0.15033100  0.57554829  1
  Ru  Ru1  1  0.29042134  0.84966900  0.07554829  1
  Ru  Ru2  1  0.79042134  0.65033100  0.92445171  1
  Ru  Ru3  1  0.70957866  0.34966900  0.42445171  1
  Ru  Ru4  1  0.15033100  0.57554829  0.20957866  1
  Ru  Ru5  1  0.84966900  0.07554829  0.29042134  1
  Ru  Ru6  1  0.65033100  0.92445171  0.79042134  1
  Ru  Ru7  1  0.34966900  0.42445171  0.70957866  1
  Ru  Ru8  1  0.57554829  0.20957866  0.15033100  1
  Ru  Ru9  1  0.07554829  0.29042134  0.84966900  1
  Ru  Ru10  1  0.92445171  0.79042134  0.65033100  1
  Ru  Ru11  1  0.42445171  0.70957866  0.34966900  1
  Ru  Ru12  1  0.54042134  0.17445171  0.59966900  1
  Ru  Ru13  1  0.45957866  0.67445171  0.90033100  1
  Ru  Ru14  1  0.95957866  0.82554829  0.09966900  1
  Ru  Ru15  1  0.04042134  0.32554829  0.40033100  1
  Ru  Ru16  1  0.59966900  0.54042134  0.17445171  1
  Ru  Ru17  1  0.90033100  0.45957866  0.67445171  1
  Ru  Ru18  1  0.09966900  0.95957866  0.82554829  1
  Ru  Ru19  1  0.40033100  0.04042134  0.32554829  1
  Ru  Ru20  1  0.17445171  0.59966900  0.54042134  1
  Ru  Ru21  1  0.67445171  0.90033100  0.45957866  1
  Ru  Ru22  1  0.82554829  0.09966900  0.95957866  1
  Ru  Ru23  1  0.32554829  0.40033100  0.04042134  1
  Ru  Ru24  1  0.12676922  0.87323078  0.37323078  1
  Ru  Ru25  1  0.37323078  0.12676922  0.87323078  1
  Ru  Ru26  1  0.87323078  0.37323078  0.12676922  1
  Ru  Ru27  1  0.62676922  0.62676922  0.62676922  1
  Ru  Ru28  1  0.62323078  0.37676922  0.87676922  1
  Ru  Ru29  1  0.37676922  0.87676922  0.62323078  1
  Ru  Ru30  1  0.87676922  0.62323078  0.37676922  1
  Ru  Ru31  1  0.12323078  0.12323078  0.12323078  1
  Ru  Ru32  1  0.87500000  0.12500000  0.62500000  1
  Ru  Ru33  1  0.62500000  0.87500000  0.12500000  1
  Ru  Ru34  1  0.12500000  0.62500000  0.87500000  1
  Ru  Ru35  1  0.37500000  0.37500000  0.37500000  1
loop_
_geom_bond_atom_site_label_1
_geom_bond_atom_site_label_2
_geom_bond_distance
_geom_bond_site_symmetry_2
Zn0 Zn92 2.519484 1_555
Zn0 Zn190 2.673176 1_555
Zn0 Zn183 2.715364 1_555
Zn0 Zn111 2.799153 1_455
Zn0 Zn116 2.900959 1_555
Zn0 Zn48 3.103313 1_555
Zn1 Zn95 2.519484 1_555
Zn1 Zn188 2.673176 1_556
Zn1 Zn182 2.715364 1_556
Zn1 Zn109 2.799153 1_555
Zn1 Zn119 2.900959 1_555
Zn1 Zn49 3.103313 1_555
Zn2 Zn94 2.519484 1_555
Zn2 Zn50 3.103313 1_555
Zn3 Zn93 2.519484 1_555
Zn3 Zn51 3.103313 1_555
Zn4 Zn88 2.519484 1_555
Zn4 Zn52 3.103313 1_555
Zn5 Zn91 2.519484 1_555
Zn5 Zn53 3.103313 1_555
Zn6 Zn90 2.519484 1_555
Zn7 Zn89 2.519484 1_555
Zn8 Zn84 2.519484 1_555
Zn10 Zn86 2.519484 1_555
Zn10 Zn185 2.673176 1_455
Zn10 Zn189 2.715364 1_455
Zn10 Zn114 2.799153 1_565
Zn10 Zn110 2.900959 1_556
Zn10 Zn58 3.103313 1_555
Zn11 Zn85 2.519484 1_555
Zn11 Zn187 2.673176 1_555
Zn11 Zn188 2.715364 1_555
Zn11 Zn112 2.799153 1_555
Zn11 Zn59 3.103313 1_555
Zn12 Zn80 2.519484 1_555
Zn12 Zn191 2.673176 1_555
Zn12 Zn186 2.715364 1_555
Zn12 Zn99 2.799153 1_555
Zn12 Zn60 3.103313 1_555
Zn13 Zn83 2.519484 1_555
Zn13 Zn188 2.673176 1_555
Zn13 Zn187 2.715364 1_555
Zn13 Zn97 2.799153 1_555
Zn13 Zn61 3.103313 1_555
Zn14 Zn82 2.519484 1_655
Zn14 Zn189 2.673176 1_555
Zn14 Zn185 2.715364 1_555
Zn14 Zn98 2.799153 1_555
Zn14 Zn62 3.103313 1_555
Zn15 Zn81 2.519484 1_455
Zn15 Zn190 2.673176 1_555
Zn15 Zn184 2.715364 1_555
Zn15 Zn96 2.799153 1_555
Zn15 Zn63 3.103313 1_555
Zn16 Zn76 2.519484 1_555
Zn16 Zn187 2.673176 1_555
Zn16 Zn182 2.715364 1_555
Zn16 Zn64 3.103313 1_555
Zn17 Zn79 2.519484 1_555
Zn17 Zn184 2.673176 1_555
Zn17 Zn183 2.715364 1_555
Zn17 Zn65 3.103313 1_555
Zn18 Zn78 2.519484 1_565
Zn18 Zn185 2.673176 1_555
Zn18 Zn181 2.715364 1_555
Zn18 Zn66 3.103313 1_555
Zn19 Zn77 2.519484 1_545
Zn19 Zn67 3.103313 1_555
Zn20 Zn72 2.519484 1_555
Zn20 Zn96 2.900959 1_555
Zn20 Zn68 3.103313 1_555
Zn21 Zn75 2.519484 1_555
Zn21 Zn99 2.900959 1_555
Zn21 Zn69 3.103313 1_555
Zn22 Zn74 2.519484 1_556
Zn22 Zn98 2.900959 1_555
Zn22 Zn70 3.103313 1_555
Zn23 Zn73 2.519484 1_554
Zn23 Zn97 2.900959 1_555
Zn23 Zn71 3.103313 1_555
Zn24 Zn63 2.576229 1_555
Zn24 Zn90 2.730606 1_455
Zn24 Zn96 2.736573 1_555
Zn25 Zn61 2.576229 1_555
Zn25 Zn91 2.730606 1_555
Zn25 Zn97 2.736573 1_555
Zn26 Zn62 2.576229 1_555
Zn26 Zn89 2.730606 1_655
Zn26 Zn98 2.736573 1_555
Zn27 Zn60 2.576229 1_555
Zn27 Zn88 2.730606 1_555
Zn27 Zn99 2.736573 1_555
Zn28 Zn71 2.576229 1_555
Zn28 Zn86 2.730606 1_554
Zn29 Zn69 2.576229 1_555
Zn29 Zn87 2.730606 1_555
Zn30 Zn70 2.576229 1_555
Zn30 Zn85 2.730606 1_556
Zn31 Zn68 2.576229 1_555
Zn31 Zn84 2.730606 1_555
Zn32 Zn67 2.576229 1_555
Zn32 Zn94 2.730606 1_545
Zn33 Zn65 2.576229 1_555
Zn33 Zn95 2.730606 1_555
Zn34 Zn66 2.576229 1_555
Zn34 Zn93 2.730606 1_565
Zn35 Zn64 2.576229 1_555
Zn35 Zn92 2.730606 1_555
Zn36 Zn51 2.576229 1_555
Zn36 Zn78 2.730606 1_555
Zn37 Zn49 2.576229 1_555
Zn37 Zn79 2.730606 1_555
Zn38 Zn50 2.576229 1_555
Zn38 Zn77 2.730606 1_555
Zn39 Zn48 2.576229 1_555
Zn39 Zn76 2.730606 1_555
Zn40 Zn59 2.576229 1_555
Zn40 Zn74 2.730606 1_555
Zn41 Zn57 2.576229 1_555
Zn41 Zn75 2.730606 1_555
Zn42 Zn58 2.576229 1_555
Zn42 Zn73 2.730606 1_555
Zn43 Zn56 2.576229 1_555
Zn43 Zn72 2.730606 1_555
Zn44 Zn55 2.576229 1_555
Zn44 Zn82 2.730606 1_555
Zn45 Zn53 2.576229 1_555
Zn45 Zn83 2.730606 1_555
Zn46 Zn54 2.576229 1_555
Zn46 Zn81 2.730606 1_555
Zn47 Zn52 2.576229 1_555
Zn47 Zn80 2.730606 1_555
Zn48 Zn72 2.497438 1_555
Zn48 Zn76 2.675639 1_555
Zn48 Zn56 2.917379 1_555
Zn48 Zn52 2.917379 1_555
Zn48 Zn92 3.054910 1_555
Zn49 Zn73 2.497438 1_555
Zn49 Zn79 2.675639 1_555
Zn49 Zn58 2.917379 1_555
Zn49 Zn55 2.917379 1_555
Zn49 Zn95 3.054910 1_555
Zn50 Zn74 2.497438 1_555
Zn50 Zn77 2.675639 1_555
Zn50 Zn59 2.917379 1_555
Zn50 Zn53 2.917379 1_555
Zn50 Zn94 3.054910 1_555
Zn51 Zn75 2.497438 1_555
Zn51 Zn78 2.675639 1_555
Zn51 Zn54 2.917379 1_555
Zn51 Zn57 2.917379 1_555
Zn51 Zn93 3.054910 1_555
Zn52 Zn76 2.497438 1_555
Zn52 Zn80 2.675639 1_555
Zn52 Zn56 2.917379 1_555
Zn52 Zn88 3.054910 1_555
Zn53 Zn77 2.497438 1_555
Zn53 Zn83 2.675639 1_555
Zn53 Zn59 2.917379 1_555
Zn53 Zn91 3.054910 1_555
Zn54 Zn78 2.497438 1_555
Zn54 Zn81 2.675639 1_555
Zn54 Zn57 2.917379 1_555
Zn54 Zn90 3.054910 1_555
Zn54 Zn6 3.103313 1_555
Zn55 Zn79 2.497438 1_555
Zn55 Zn82 2.675639 1_555
Zn55 Zn58 2.917379 1_555
Zn55 Zn89 3.054910 1_555
Zn55 Zn7 3.103313 1_555
Zn56 Zn80 2.497438 1_555
Zn56 Zn72 2.675639 1_555
Zn56 Zn84 3.054910 1_555
Zn56 Zn8 3.103313 1_555
Zn57 Zn81 2.497438 1_555
Zn57 Zn75 2.675639 1_555
Zn57 Zn87 3.054910 1_555
Zn57 Zn9 3.103313 1_555
Zn58 Zn82 2.497438 1_555
Zn58 Zn73 2.675639 1_555
Zn58 Zn86 3.054910 1_555
Zn59 Zn83 2.497438 1_555
Zn59 Zn74 2.675639 1_555
Zn59 Zn85 3.054910 1_555
Zn60 Zn84 2.497438 1_555
Zn60 Zn88 2.675639 1_555
Zn60 Zn64 2.917379 1_555
Zn60 Zn68 2.917379 1_555
Zn60 Zn80 3.054910 1_555
Zn61 Zn85 2.497438 1_555
Zn61 Zn91 2.675639 1_555
Zn61 Zn67 2.917379 1_565
Zn61 Zn70 2.917379 1_554
Zn61 Zn83 3.054910 1_555
Zn62 Zn86 2.497438 1_655
Zn62 Zn89 2.675639 1_655
Zn62 Zn71 2.917379 1_656
Zn62 Zn65 2.917379 1_655
Zn62 Zn82 3.054910 1_655
Zn63 Zn87 2.497438 1_455
Zn63 Zn90 2.675639 1_455
Zn63 Zn69 2.917379 1_455
Zn63 Zn66 2.917379 1_445
Zn63 Zn81 3.054910 1_455
Zn64 Zn88 2.497438 1_555
Zn64 Zn92 2.675639 1_555
Zn64 Zn68 2.917379 1_555
Zn64 Zn76 3.054910 1_555
Zn65 Zn89 2.497438 1_555
Zn65 Zn95 2.675639 1_555
Zn65 Zn71 2.917379 1_556
Zn65 Zn79 3.054910 1_555
Zn66 Zn90 2.497438 1_565
Zn66 Zn93 2.675639 1_565
Zn66 Zn69 2.917379 1_565
Zn66 Zn78 3.054910 1_565
Zn67 Zn91 2.497438 1_545
Zn67 Zn94 2.675639 1_545
Zn67 Zn70 2.917379 1_544
Zn67 Zn77 3.054910 1_545
Zn68 Zn92 2.497438 1_555
Zn68 Zn84 2.675639 1_555
Zn68 Zn72 3.054910 1_555
Zn69 Zn93 2.497438 1_555
Zn69 Zn87 2.675639 1_555
Zn69 Zn75 3.054910 1_555
Zn70 Zn94 2.497438 1_556
Zn70 Zn85 2.675639 1_556
Zn70 Zn74 3.054910 1_556
Zn71 Zn95 2.497438 1_554
Zn71 Zn86 2.675639 1_554
Zn71 Zn73 3.054910 1_554
Zn72 Zn84 2.734758 1_555
Zn73 Zn86 2.734758 1_555
Zn74 Zn85 2.734758 1_555
Zn75 Zn87 2.734758 1_555
Zn76 Zn92 2.734758 1_555
Zn77 Zn94 2.734758 1_555
Zn78 Zn93 2.734758 1_555
Zn79 Zn95 2.734758 1_555
Zn80 Zn88 2.734758 1_555
Zn81 Zn90 2.734758 1_555
Zn82 Zn89 2.734758 1_555
Zn83 Zn91 2.734758 1_555
Zn87 Zn9 2.519484 1_555
Zn100 Zn204 2.632330 1_555
Zn100 Zn130 2.633901 1_555
Zn100 Zn107 2.713894 1_555
Zn100 Zn97 2.713894 1_555
Zn100 Zn136 2.720866 1_555
Zn100 Zn28 2.736573 1_555
Zn100 Zn120 2.737742 1_555
Zn100 Zn23 2.799153 1_555
Zn100 Zn16 2.900959 1_555
Zn100 Zn192 2.947493 1_455
Zn101 Zn206 2.632330 1_555
Zn101 Zn129 2.633901 1_555
Zn101 Zn104 2.713894 1_555
Zn101 Zn99 2.713894 1_555
Zn101 Zn139 2.720866 1_555
Zn101 Zn29 2.736573 1_555
Zn101 Zn122 2.737742 1_555
Zn101 Zn21 2.799153 1_555
Zn101 Zn19 2.900959 1_555
Zn101 Zn194 2.947493 1_655
Zn102 Zn207 2.632330 1_555
Zn102 Zn131 2.633901 1_555
Zn102 Zn106 2.713894 1_555
Zn102 Zn98 2.713894 1_555
Zn102 Zn138 2.720866 1_555
Zn102 Zn30 2.736573 1_555
Zn102 Zn123 2.737742 1_555
Zn102 Zn22 2.799153 1_555
Zn102 Zn18 2.900959 1_555
Zn102 Zn195 2.947493 1_555
Zn103 Zn205 2.632330 1_555
Zn103 Zn128 2.633901 1_555
Zn103 Zn96 2.713894 1_555
Zn103 Zn105 2.713894 1_555
Zn103 Zn137 2.720866 1_555
Zn103 Zn31 2.736573 1_555
Zn103 Zn121 2.737742 1_555
Zn103 Zn20 2.799153 1_555
Zn103 Zn17 2.900959 1_555
Zn103 Zn193 2.947493 1_555
Zn104 Zn208 2.632330 1_555
Zn104 Zn122 2.633901 1_555
Zn104 Zn99 2.713894 1_555
Zn104 Zn132 2.720866 1_555
Zn104 Zn32 2.736573 1_555
Zn104 Zn124 2.737742 1_555
Zn104 Zn19 2.799153 1_555
Zn104 Zn12 2.900959 1_555
Zn104 Zn196 2.947493 1_554
Zn105 Zn210 2.632330 1_555
Zn105 Zn121 2.633901 1_555
Zn105 Zn96 2.713894 1_555
Zn105 Zn135 2.720866 1_555
Zn105 Zn33 2.736573 1_555
Zn105 Zn126 2.737742 1_555
Zn105 Zn17 2.799153 1_555
Zn105 Zn15 2.900959 1_555
Zn105 Zn198 2.947493 1_556
Zn106 Zn211 2.632330 1_555
Zn106 Zn123 2.633901 1_555
Zn106 Zn98 2.713894 1_555
Zn106 Zn134 2.720866 1_555
Zn106 Zn34 2.736573 1_555
Zn106 Zn127 2.737742 1_555
Zn106 Zn18 2.799153 1_555
Zn106 Zn14 2.900959 1_555
Zn106 Zn199 2.947493 1_555
Zn107 Zn209 2.632330 1_555
Zn107 Zn120 2.633901 1_555
Zn107 Zn97 2.713894 1_555
Zn107 Zn133 2.720866 1_555
Zn107 Zn35 2.736573 1_555
Zn107 Zn125 2.737742 1_555
Zn107 Zn16 2.799153 1_555
Zn107 Zn13 2.900959 1_555
Zn107 Zn197 2.947493 1_555
Zn108 Zn212 2.632330 1_555
Zn108 Zn138 2.633901 1_545
Zn108 Zn117 2.713894 1_545
Zn108 Zn115 2.713894 1_545
Zn108 Zn128 2.720866 1_555
Zn108 Zn36 2.736573 1_555
Zn108 Zn140 2.737742 1_555
Zn108 Zn3 2.799153 1_555
Zn108 Zn8 2.900959 1_555
Zn108 Zn200 2.947493 1_545
Zn109 Zn215 2.632330 1_555
Zn109 Zn137 2.633901 1_555
Zn109 Zn112 2.713894 1_556
Zn109 Zn119 2.713894 1_555
Zn109 Zn131 2.720866 1_555
Zn109 Zn37 2.736573 1_555
Zn109 Zn142 2.737742 1_555
Zn109 Zn11 2.900959 1_556
Zn109 Zn203 2.947493 1_555
Zn110 Zn214 2.632330 1_555
Zn110 Zn139 2.633901 1_465
Zn110 Zn118 2.713894 1_465
Zn110 Zn114 2.713894 1_564
Zn110 Zn130 2.720866 1_555
Zn110 Zn38 2.736573 1_455
Zn110 Zn143 2.737742 1_555
Zn110 Zn2 2.799153 1_455
Zn110 Zn202 2.947493 1_565
Zn111 Zn213 2.632330 1_555
Zn111 Zn136 2.633901 1_655
Zn111 Zn113 2.713894 1_555
Zn111 Zn116 2.713894 1_655
Zn111 Zn129 2.720866 1_555
Zn111 Zn39 2.736573 1_655
Zn111 Zn141 2.737742 1_555
Zn111 Zn9 2.900959 1_555
Zn111 Zn201 2.947493 1_555
Zn112 Zn208 2.632330 1_555
Zn112 Zn142 2.633901 1_554
Zn112 Zn119 2.713894 1_554
Zn112 Zn124 2.720866 1_555
Zn112 Zn40 2.736573 1_555
Zn112 Zn132 2.737742 1_555
Zn112 Zn4 2.900959 1_555
Zn112 Zn196 2.947493 1_554
Zn113 Zn211 2.632330 1_555
Zn113 Zn141 2.633901 1_555
Zn113 Zn116 2.713894 1_655
Zn113 Zn127 2.720866 1_555
Zn113 Zn41 2.736573 1_555
Zn113 Zn134 2.737742 1_555
Zn113 Zn9 2.799153 1_555
Zn113 Zn7 2.900959 1_655
Zn113 Zn199 2.947493 1_555
Zn114 Zn210 2.632330 1_555
Zn114 Zn143 2.633901 1_546
Zn114 Zn118 2.713894 1_456
Zn114 Zn126 2.720866 1_555
Zn114 Zn42 2.736573 1_545
Zn114 Zn135 2.737742 1_555
Zn114 Zn6 2.900959 1_455
Zn114 Zn198 2.947493 1_556
Zn115 Zn209 2.632330 1_555
Zn115 Zn140 2.633901 1_565
Zn115 Zn117 2.713894 1_555
Zn115 Zn125 2.720866 1_555
Zn115 Zn43 2.736573 1_565
Zn115 Zn133 2.737742 1_555
Zn115 Zn8 2.799153 1_565
Zn115 Zn5 2.900959 1_555
Zn115 Zn197 2.947493 1_555
Zn116 Zn204 2.632330 1_555
Zn116 Zn134 2.633901 1_455
Zn116 Zn120 2.720866 1_555
Zn116 Zn44 2.736573 1_555
Zn116 Zn136 2.737742 1_555
Zn116 Zn7 2.799153 1_555
Zn116 Zn192 2.947493 1_455
Zn117 Zn207 2.632330 1_555
Zn117 Zn133 2.633901 1_555
Zn117 Zn123 2.720866 1_555
Zn117 Zn45 2.736573 1_555
Zn117 Zn138 2.737742 1_555
Zn117 Zn5 2.799153 1_555
Zn117 Zn3 2.900959 1_565
Zn117 Zn195 2.947493 1_555
Zn118 Zn206 2.632330 1_555
Zn118 Zn135 2.633901 1_654
Zn118 Zn122 2.720866 1_555
Zn118 Zn46 2.736573 1_554
Zn118 Zn139 2.737742 1_555
Zn118 Zn6 2.799153 1_554
Zn118 Zn2 2.900959 1_545
Zn118 Zn194 2.947493 1_655
Zn119 Zn205 2.632330 1_555
Zn119 Zn132 2.633901 1_556
Zn119 Zn121 2.720866 1_555
Zn119 Zn47 2.736573 1_556
Zn119 Zn137 2.737742 1_555
Zn119 Zn4 2.799153 1_556
Zn119 Zn193 2.947493 1_555
Zn120 Zn197 2.613501 1_555
Zn120 Zn154 2.849702 1_555
Zn121 Zn198 2.613501 1_556
Zn121 Zn152 2.849702 1_556
Zn122 Zn196 2.613501 1_554
Zn122 Zn153 2.849702 1_554
Zn123 Zn199 2.613501 1_555
Zn123 Zn155 2.849702 1_555
Zn124 Zn201 2.613501 1_555
Zn124 Zn99 2.633901 1_555
Zn124 Zn146 2.849702 1_555
Zn125 Zn202 2.613501 1_565
Zn125 Zn97 2.633901 1_555
Zn125 Zn144 2.849702 1_565
Zn126 Zn200 2.613501 1_545
Zn126 Zn96 2.633901 1_555
Zn126 Zn145 2.849702 1_545
Zn127 Zn203 2.613501 1_555
Zn127 Zn98 2.633901 1_555
Zn127 Zn147 2.849702 1_555
Zn128 Zn193 2.613501 1_555
Zn128 Zn96 2.737742 1_555
Zn128 Zn150 2.849702 1_555
Zn129 Zn194 2.613501 1_655
Zn129 Zn99 2.737742 1_555
Zn129 Zn148 2.849702 1_655
Zn130 Zn192 2.613501 1_455
Zn130 Zn97 2.737742 1_555
Zn130 Zn149 2.849702 1_455
Zn131 Zn195 2.613501 1_555
Zn131 Zn98 2.737742 1_555
Zn131 Zn151 2.849702 1_555
Zn132 Zn193 2.613501 1_554
Zn132 Zn166 2.849702 1_554
Zn133 Zn195 2.613501 1_555
Zn133 Zn164 2.849702 1_555
Zn134 Zn192 2.613501 1_555
Zn134 Zn165 2.849702 1_555
Zn135 Zn194 2.613501 1_556
Zn135 Zn167 2.849702 1_556
Zn136 Zn201 2.613501 1_455
Zn136 Zn158 2.849702 1_455
Zn137 Zn203 2.613501 1_555
Zn137 Zn156 2.849702 1_555
Zn138 Zn200 2.613501 1_555
Zn138 Zn157 2.849702 1_555
Zn139 Zn202 2.613501 1_655
Zn139 Zn159 2.849702 1_655
Zn140 Zn197 2.613501 1_545
Zn140 Zn96 2.720866 1_555
Zn140 Zn162 2.849702 1_545
Zn141 Zn199 2.613501 1_555
Zn141 Zn99 2.720866 1_555
Zn141 Zn160 2.849702 1_555
Zn142 Zn196 2.613501 1_555
Zn142 Zn98 2.720866 1_555
Zn142 Zn161 2.849702 1_555
Zn143 Zn198 2.613501 1_565
Zn143 Zn97 2.720866 1_555
Zn143 Zn163 2.849702 1_565
Zn144 Zn63 2.607623 1_555
Zn144 Zn197 2.701513 1_545
Zn144 Zn178 2.706892 1_555
Zn144 Zn43 2.808191 1_555
Zn144 Zn149 2.940098 1_445
Zn144 Zn154 2.940098 1_545
Zn145 Zn61 2.607623 1_556
Zn145 Zn198 2.701513 1_566
Zn145 Zn176 2.706892 1_555
Zn145 Zn42 2.808191 1_555
Zn145 Zn150 2.940098 1_565
Zn145 Zn152 2.940098 1_566
Zn146 Zn62 2.607623 1_554
Zn146 Zn196 2.701513 1_554
Zn146 Zn177 2.706892 1_555
Zn146 Zn40 2.808191 1_555
Zn146 Zn153 2.940098 1_554
Zn146 Zn148 2.940098 1_655
Zn147 Zn60 2.607623 1_555
Zn147 Zn199 2.701513 1_555
Zn147 Zn179 2.706892 1_555
Zn147 Zn41 2.808191 1_555
Zn147 Zn155 2.940098 1_555
Zn147 Zn151 2.940098 1_555
Zn148 Zn71 2.607623 1_555
Zn148 Zn201 2.701513 1_455
Zn148 Zn170 2.706892 1_555
Zn148 Zn39 2.808191 1_555
Zn148 Zn153 2.940098 1_454
Zn149 Zn69 2.607623 1_565
Zn149 Zn202 2.701513 1_665
Zn149 Zn168 2.706892 1_555
Zn149 Zn38 2.808191 1_555
Zn149 Zn154 2.940098 1_655
Zn150 Zn70 2.607623 1_545
Zn150 Zn200 2.701513 1_545
Zn150 Zn169 2.706892 1_555
Zn150 Zn36 2.808191 1_555
Zn150 Zn152 2.940098 1_556
Zn151 Zn68 2.607623 1_555
Zn151 Zn203 2.701513 1_555
Zn151 Zn171 2.706892 1_555
Zn151 Zn37 2.808191 1_555
Zn151 Zn155 2.940098 1_555
Zn152 Zn67 2.607623 1_555
Zn152 Zn193 2.701513 1_554
Zn152 Zn174 2.706892 1_555
Zn152 Zn47 2.808191 1_555
Zn153 Zn65 2.607623 1_655
Zn153 Zn194 2.701513 1_656
Zn153 Zn172 2.706892 1_555
Zn153 Zn46 2.808191 1_555
Zn154 Zn66 2.607623 1_455
Zn154 Zn192 2.701513 1_455
Zn154 Zn173 2.706892 1_555
Zn154 Zn44 2.808191 1_555
Zn155 Zn64 2.607623 1_555
Zn155 Zn195 2.701513 1_555
Zn155 Zn175 2.706892 1_555
Zn155 Zn45 2.808191 1_555
Zn156 Zn51 2.607623 1_555
Zn156 Zn193 2.701513 1_555
Zn156 Zn179 2.706892 1_555
Zn156 Zn31 2.808191 1_555
Zn156 Zn166 2.940098 1_555
Zn156 Zn161 2.940098 1_555
Zn157 Zn49 2.607623 1_555
Zn157 Zn195 2.701513 1_555
Zn157 Zn176 2.706892 1_555
Zn157 Zn30 2.808191 1_555
Zn157 Zn164 2.940098 1_555
Zn157 Zn162 2.940098 1_555
Zn158 Zn50 2.607623 1_555
Zn158 Zn192 2.701513 1_555
Zn158 Zn177 2.706892 1_555
Zn158 Zn28 2.808191 1_655
Zn158 Zn160 2.940098 1_555
Zn158 Zn165 2.940098 1_555
Zn159 Zn48 2.607623 1_555
Zn159 Zn194 2.701513 1_555
Zn159 Zn178 2.706892 1_555
Zn159 Zn29 2.808191 1_455
Zn159 Zn167 2.940098 1_555
Zn159 Zn163 2.940098 1_555
Zn160 Zn59 2.607623 1_555
Zn160 Zn201 2.701513 1_555
Zn160 Zn175 2.706892 1_555
Zn160 Zn27 2.808191 1_555
Zn160 Zn165 2.940098 1_555
Zn161 Zn57 2.607623 1_555
Zn161 Zn203 2.701513 1_555
Zn161 Zn172 2.706892 1_555
Zn161 Zn26 2.808191 1_555
Zn161 Zn166 2.940098 1_555
Zn162 Zn58 2.607623 1_555
Zn162 Zn200 2.701513 1_555
Zn162 Zn173 2.706892 1_555
Zn162 Zn24 2.808191 1_565
Zn162 Zn164 2.940098 1_555
Zn163 Zn56 2.607623 1_555
Zn163 Zn202 2.701513 1_555
Zn163 Zn174 2.706892 1_555
Zn163 Zn25 2.808191 1_545
Zn163 Zn167 2.940098 1_555
Zn164 Zn55 2.607623 1_555
Zn164 Zn197 2.701513 1_555
Zn164 Zn171 2.706892 1_555
Zn164 Zn35 2.808191 1_555
Zn165 Zn53 2.607623 1_555
Zn165 Zn199 2.701513 1_555
Zn165 Zn168 2.706892 1_555
Zn165 Zn34 2.808191 1_555
Zn166 Zn54 2.607623 1_555
Zn166 Zn196 2.701513 1_555
Zn166 Zn169 2.706892 1_555
Zn166 Zn32 2.808191 1_556
Zn167 Zn52 2.607623 1_555
Zn167 Zn198 2.701513 1_555
Zn167 Zn170 2.706892 1_555
Zn167 Zn33 2.808191 1_554
Zn168 Zn180 2.596109 1_565
Zn168 Zn69 2.967271 1_565
Zn168 Zn53 2.967271 1_555
Zn168 Zn93 2.994698 1_565
Zn168 Zn77 2.994698 1_555
Zn169 Zn181 2.596109 1_545
Zn169 Zn54 2.967271 1_555
Zn169 Zn70 2.967271 1_545
Zn169 Zn78 2.994698 1_555
Zn169 Zn94 2.994698 1_546
Zn170 Zn182 2.596109 1_555
Zn170 Zn52 2.967271 1_555
Zn170 Zn71 2.967271 1_555
Zn170 Zn95 2.994698 1_554
Zn170 Zn76 2.994698 1_555
Zn171 Zn183 2.596109 1_555
Zn171 Zn68 2.967271 1_555
Zn171 Zn55 2.967271 1_555
Zn171 Zn79 2.994698 1_555
Zn171 Zn92 2.994698 1_555
Zn172 Zn184 2.596109 1_655
Zn172 Zn65 2.967271 1_655
Zn172 Zn57 2.967271 1_555
Zn172 Zn89 2.994698 1_655
Zn172 Zn81 2.994698 1_555
Zn173 Zn185 2.596109 1_455
Zn173 Zn58 2.967271 1_555
Zn173 Zn66 2.967271 1_455
Zn173 Zn82 2.994698 1_555
Zn173 Zn90 2.994698 1_465
Zn174 Zn186 2.596109 1_555
Zn174 Zn56 2.967271 1_555
Zn174 Zn67 2.967271 1_555
Zn174 Zn80 2.994698 1_555
Zn174 Zn91 2.994698 1_545
Zn175 Zn187 2.596109 1_555
Zn175 Zn59 2.967271 1_555
Zn175 Zn64 2.967271 1_555
Zn175 Zn83 2.994698 1_555
Zn175 Zn88 2.994698 1_555
Zn176 Zn188 2.596109 1_556
Zn176 Zn61 2.967271 1_556
Zn176 Zn49 2.967271 1_555
Zn176 Zn85 2.994698 1_556
Zn176 Zn73 2.994698 1_555
Zn177 Zn189 2.596109 1_554
Zn177 Zn50 2.967271 1_555
Zn177 Zn62 2.967271 1_554
Zn177 Zn74 2.994698 1_555
Zn177 Zn86 2.994698 1_654
Zn178 Zn190 2.596109 1_555
Zn178 Zn48 2.967271 1_555
Zn178 Zn63 2.967271 1_555
Zn178 Zn72 2.994698 1_555
Zn178 Zn87 2.994698 1_455
Zn179 Zn191 2.596109 1_555
Zn179 Zn51 2.967271 1_555
Zn179 Zn60 2.967271 1_555
Zn179 Zn75 2.994698 1_555
Zn179 Zn84 2.994698 1_555
Zn180 Zn5 2.673176 1_545
Zn180 Zn21 2.673176 1_555
Zn180 Zn19 2.715364 1_555
Zn180 Zn3 2.715364 1_555
Zn180 Zn93 2.802937 1_555
Zn180 Zn77 2.802937 1_545
Zn180 Zn191 2.929230 1_555
Zn180 Zn186 2.929230 1_555
Zn181 Zn22 2.673176 1_555
Zn181 Zn6 2.673176 1_565
Zn181 Zn2 2.715364 1_556
Zn181 Zn78 2.802937 1_565
Zn181 Zn94 2.802937 1_556
Zn181 Zn185 2.929230 1_555
Zn181 Zn189 2.929230 1_555
Zn182 Zn4 2.673176 1_555
Zn182 Zn23 2.673176 1_555
Zn182 Zn76 2.802937 1_555
Zn182 Zn95 2.802937 1_554
Zn182 Zn187 2.929230 1_555
Zn182 Zn188 2.929230 1_555
Zn183 Zn7 2.673176 1_555
Zn183 Zn20 2.673176 1_555
Zn183 Zn79 2.802937 1_555
Zn183 Zn92 2.802937 1_555
Zn183 Zn184 2.929230 1_555
Zn183 Zn190 2.929230 1_555
Zn184 Zn9 2.673176 1_455
Zn184 Zn7 2.715364 1_555
Zn184 Zn89 2.802937 1_555
Zn184 Zn81 2.802937 1_455
Zn184 Zn190 2.929230 1_555
Zn185 Zn6 2.715364 1_565
Zn185 Zn82 2.802937 1_655
Zn185 Zn90 2.802937 1_565
Zn185 Zn189 2.929230 1_555
Zn186 Zn8 2.673176 1_555
Zn186 Zn19 2.673176 1_555
Zn186 Zn5 2.715364 1_545
Zn186 Zn91 2.802937 1_545
Zn186 Zn80 2.802937 1_555
Zn186 Zn191 2.929230 1_555
Zn187 Zn4 2.715364 1_555
Zn187 Zn83 2.802937 1_555
Zn187 Zn88 2.802937 1_555
Zn187 Zn188 2.929230 1_555
Zn188 Zn23 2.715364 1_555
Zn188 Zn85 2.802937 1_555
Zn188 Zn73 2.802937 1_554
Zn189 Zn2 2.673176 1_556
Zn189 Zn22 2.715364 1_555
Zn189 Zn74 2.802937 1_556
Zn189 Zn86 2.802937 1_655
Zn190 Zn20 2.715364 1_555
Zn190 Zn9 2.715364 1_455
Zn190 Zn87 2.802937 1_455
Zn190 Zn72 2.802937 1_555
Zn191 Zn3 2.673176 1_555
Zn191 Zn8 2.715364 1_555
Zn191 Zn21 2.715364 1_555
Zn191 Zn75 2.802937 1_555
Zn191 Zn84 2.802937 1_555
Zn200 Zn96 2.947493 1_565
Zn201 Zn99 2.947493 1_555
Zn202 Zn97 2.947493 1_545
Zn203 Zn98 2.947493 1_555
Zn204 Zn92 2.684880 1_555
Zn204 Zn76 2.684880 1_555
Zn205 Zn79 2.684880 1_555
Zn205 Zn95 2.684880 1_555
Zn206 Zn77 2.684880 1_545
Zn206 Zn94 2.684880 1_545
Zn207 Zn78 2.684880 1_565
Zn207 Zn93 2.684880 1_565
Zn208 Zn88 2.684880 1_555
Zn208 Zn80 2.684880 1_555
Zn209 Zn83 2.684880 1_555
Zn209 Zn91 2.684880 1_555
Zn210 Zn81 2.684880 1_455
Zn210 Zn90 2.684880 1_455
Zn211 Zn82 2.684880 1_655
Zn211 Zn89 2.684880 1_655
Zn212 Zn96 2.632330 1_555
Zn212 Zn84 2.684880 1_555
Zn212 Zn72 2.684880 1_555
Zn213 Zn99 2.632330 1_555
Zn213 Zn87 2.684880 1_555
Zn213 Zn75 2.684880 1_555
Zn214 Zn97 2.632330 1_555
Zn214 Zn73 2.684880 1_554
Zn214 Zn86 2.684880 1_554
Zn215 Zn98 2.632330 1_555
Zn215 Zn85 2.684880 1_556
Zn215 Zn74 2.684880 1_556
Ru0 Zn140 2.537412 1_555
Ru0 Zn15 2.571909 1_555
Ru0 Zn43 2.595268 1_555
Ru0 Zn212 2.600821 1_555
Ru0 Zn96 2.642363 1_555
Ru0 Zn178 2.660549 1_555
Ru0 Zn24 2.660868 1_555
Ru0 Zn20 2.688384 1_555
Ru0 Zn190 2.698813 1_555
Ru0 Zn72 2.721190 1_555
Ru0 Zn63 2.761035 1_555
Ru0 Zn144 2.902687 1_555
Ru1 Zn143 2.537412 1_555
Ru1 Zn13 2.571909 1_555
Ru1 Zn42 2.595268 1_554
Ru1 Zn214 2.600821 1_555
Ru1 Zn97 2.642363 1_555
Ru1 Zn176 2.660549 1_554
Ru1 Zn25 2.660868 1_555
Ru1 Zn23 2.688384 1_555
Ru1 Zn188 2.698813 1_555
Ru1 Zn73 2.721190 1_554
Ru1 Zn61 2.761035 1_555
Ru1 Zn145 2.902687 1_554
Ru2 Zn142 2.537412 1_555
Ru2 Zn14 2.571909 1_555
Ru2 Zn40 2.595268 1_556
Ru2 Zn215 2.600821 1_555
Ru2 Zn98 2.642363 1_555
Ru2 Zn177 2.660549 1_556
Ru2 Zn26 2.660868 1_555
Ru2 Zn22 2.688384 1_555
Ru2 Zn189 2.698813 1_555
Ru2 Zn74 2.721190 1_556
Ru2 Zn62 2.761035 1_555
Ru2 Zn146 2.902687 1_556
Ru3 Zn141 2.537412 1_555
Ru3 Zn12 2.571909 1_555
Ru3 Zn41 2.595268 1_555
Ru3 Zn213 2.600821 1_555
Ru3 Zn99 2.642363 1_555
Ru3 Zn179 2.660549 1_555
Ru3 Zn27 2.660868 1_555
Ru3 Zn21 2.688384 1_555
Ru3 Zn191 2.698813 1_555
Ru3 Zn75 2.721190 1_555
Ru3 Zn60 2.761035 1_555
Ru3 Zn147 2.902687 1_555
Ru4 Zn136 2.537412 1_555
Ru4 Zn23 2.571909 1_555
Ru4 Zn39 2.595268 1_555
Ru4 Zn204 2.600821 1_555
Ru4 Zn100 2.642363 1_555
Ru4 Zn170 2.660549 1_555
Ru4 Zn28 2.660868 1_555
Ru4 Zn16 2.688384 1_555
Ru4 Zn182 2.698813 1_555
Ru4 Zn76 2.721190 1_555
Ru4 Zn71 2.761035 1_555
Ru4 Zn148 2.902687 1_555
Ru5 Zn139 2.537412 1_555
Ru5 Zn21 2.571909 1_555
Ru5 Zn38 2.595268 1_545
Ru5 Zn206 2.600821 1_555
Ru5 Zn101 2.642363 1_555
Ru5 Zn168 2.660549 1_545
Ru5 Zn29 2.660868 1_555
Ru5 Zn19 2.688384 1_555
Ru5 Zn180 2.698813 1_555
Ru5 Zn77 2.721190 1_545
Ru5 Zn69 2.761035 1_555
Ru5 Zn149 2.902687 1_545
Ru6 Zn138 2.537412 1_555
Ru6 Zn22 2.571909 1_555
Ru6 Zn36 2.595268 1_565
Ru6 Zn207 2.600821 1_555
Ru6 Zn102 2.642363 1_555
Ru6 Zn169 2.660549 1_565
Ru6 Zn30 2.660868 1_555
Ru6 Zn18 2.688384 1_555
Ru6 Zn181 2.698813 1_555
Ru6 Zn78 2.721190 1_565
Ru6 Zn70 2.761035 1_555
Ru6 Zn150 2.902687 1_565
Ru7 Zn137 2.537412 1_555
Ru7 Zn20 2.571909 1_555
Ru7 Zn37 2.595268 1_555
Ru7 Zn205 2.600821 1_555
Ru7 Zn103 2.642363 1_555
Ru7 Zn171 2.660549 1_555
Ru7 Zn31 2.660868 1_555
Ru7 Zn17 2.688384 1_555
Ru7 Zn183 2.698813 1_555
Ru7 Zn79 2.721190 1_555
Ru7 Zn68 2.761035 1_555
Ru7 Zn151 2.902687 1_555
Ru8 Zn132 2.537412 1_555
Ru8 Zn19 2.571909 1_555
Ru8 Zn47 2.595268 1_555
Ru8 Zn208 2.600821 1_555
Ru8 Zn104 2.642363 1_555
Ru8 Zn174 2.660549 1_555
Ru8 Zn32 2.660868 1_555
Ru8 Zn12 2.688384 1_555
Ru8 Zn186 2.698813 1_555
Ru8 Zn80 2.721190 1_555
Ru8 Zn67 2.761035 1_555
Ru8 Zn152 2.902687 1_555
Ru9 Zn135 2.537412 1_555
Ru9 Zn17 2.571909 1_555
Ru9 Zn46 2.595268 1_455
Ru9 Zn210 2.600821 1_555
Ru9 Zn105 2.642363 1_555
Ru9 Zn172 2.660549 1_455
Ru9 Zn33 2.660868 1_555
Ru9 Zn15 2.688384 1_555
Ru9 Zn184 2.698813 1_555
Ru9 Zn81 2.721190 1_455
Ru9 Zn65 2.761035 1_555
Ru9 Zn153 2.902687 1_455
Ru10 Zn134 2.537412 1_555
Ru10 Zn18 2.571909 1_555
Ru10 Zn44 2.595268 1_655
Ru10 Zn211 2.600821 1_555
Ru10 Zn106 2.642363 1_555
Ru10 Zn173 2.660549 1_655
Ru10 Zn34 2.660868 1_555
Ru10 Zn14 2.688384 1_555
Ru10 Zn185 2.698813 1_555
Ru10 Zn82 2.721190 1_655
Ru10 Zn66 2.761035 1_555
Ru10 Zn154 2.902687 1_655
Ru11 Zn133 2.537412 1_555
Ru11 Zn16 2.571909 1_555
Ru11 Zn45 2.595268 1_555
Ru11 Zn209 2.600821 1_555
Ru11 Zn107 2.642363 1_555
Ru11 Zn175 2.660549 1_555
Ru11 Zn35 2.660868 1_555
Ru11 Zn13 2.688384 1_555
Ru11 Zn187 2.698813 1_555
Ru11 Zn83 2.721190 1_555
Ru11 Zn64 2.761035 1_555
Ru11 Zn155 2.902687 1_555
Ru12 Zn128 2.537412 1_555
Ru12 Zn3 2.571909 1_555
Ru12 Zn31 2.595268 1_555
Ru12 Zn212 2.600821 1_555
Ru12 Zn108 2.642363 1_555
Ru12 Zn179 2.660549 1_555
Ru12 Zn36 2.660868 1_555
Ru12 Zn8 2.688384 1_555
Ru12 Zn191 2.698813 1_555
Ru12 Zn84 2.721190 1_555
Ru12 Zn51 2.761035 1_555
Ru12 Zn156 2.902687 1_555
Ru13 Zn131 2.537412 1_555
Ru13 Zn1 2.571909 1_555
Ru13 Zn30 2.595268 1_555
Ru13 Zn215 2.600821 1_555
Ru13 Zn109 2.642363 1_555
Ru13 Zn176 2.660549 1_555
Ru13 Zn37 2.660868 1_555
Ru13 Zn11 2.688384 1_556
Ru13 Zn188 2.698813 1_556
Ru13 Zn85 2.721190 1_556
Ru13 Zn49 2.761035 1_555
Ru13 Zn157 2.902687 1_555
Ru14 Zn130 2.537412 1_655
Ru14 Zn2 2.571909 1_555
Ru14 Zn28 2.595268 1_655
Ru14 Zn214 2.600821 1_655
Ru14 Zn110 2.642363 1_655
Ru14 Zn177 2.660549 1_555
Ru14 Zn38 2.660868 1_555
Ru14 Zn10 2.688384 1_654
Ru14 Zn189 2.698813 1_554
Ru14 Zn86 2.721190 1_654
Ru14 Zn50 2.761035 1_555
Ru14 Zn158 2.902687 1_555
Ru15 Zn129 2.537412 1_455
Ru15 Zn0 2.571909 1_555
Ru15 Zn29 2.595268 1_455
Ru15 Zn213 2.600821 1_455
Ru15 Zn111 2.642363 1_455
Ru15 Zn178 2.660549 1_555
Ru15 Zn39 2.660868 1_555
Ru15 Zn9 2.688384 1_455
Ru15 Zn190 2.698813 1_555
Ru15 Zn87 2.721190 1_455
Ru15 Zn48 2.761035 1_555
Ru15 Zn159 2.902687 1_555
Ru16 Zn124 2.537412 1_555
Ru16 Zn11 2.571909 1_555
Ru16 Zn27 2.595268 1_555
Ru16 Zn208 2.600821 1_555
Ru16 Zn112 2.642363 1_555
Ru16 Zn175 2.660549 1_555
Ru16 Zn40 2.660868 1_555
Ru16 Zn4 2.688384 1_555
Ru16 Zn187 2.698813 1_555
Ru16 Zn88 2.721190 1_555
Ru16 Zn59 2.761035 1_555
Ru16 Zn160 2.902687 1_555
Ru17 Zn127 2.537412 1_555
Ru17 Zn9 2.571909 1_555
Ru17 Zn26 2.595268 1_555
Ru17 Zn211 2.600821 1_555
Ru17 Zn113 2.642363 1_555
Ru17 Zn172 2.660549 1_555
Ru17 Zn41 2.660868 1_555
Ru17 Zn7 2.688384 1_655
Ru17 Zn184 2.698813 1_655
Ru17 Zn89 2.721190 1_655
Ru17 Zn57 2.761035 1_555
Ru17 Zn161 2.902687 1_555
Ru18 Zn126 2.537412 1_565
Ru18 Zn10 2.571909 1_555
Ru18 Zn24 2.595268 1_565
Ru18 Zn210 2.600821 1_565
Ru18 Zn114 2.642363 1_565
Ru18 Zn173 2.660549 1_555
Ru18 Zn42 2.660868 1_555
Ru18 Zn6 2.688384 1_465
Ru18 Zn185 2.698813 1_455
Ru18 Zn90 2.721190 1_465
Ru18 Zn58 2.761035 1_555
Ru18 Zn162 2.902687 1_555
Ru19 Zn125 2.537412 1_545
Ru19 Zn8 2.571909 1_555
Ru19 Zn25 2.595268 1_545
Ru19 Zn209 2.600821 1_545
Ru19 Zn115 2.642363 1_545
Ru19 Zn174 2.660549 1_555
Ru19 Zn43 2.660868 1_555
Ru19 Zn5 2.688384 1_545
Ru19 Zn186 2.698813 1_555
Ru19 Zn91 2.721190 1_545
Ru19 Zn56 2.761035 1_555
Ru19 Zn163 2.902687 1_555
Ru20 Zn120 2.537412 1_555
Ru20 Zn7 2.571909 1_555
Ru20 Zn35 2.595268 1_555
Ru20 Zn204 2.600821 1_555
Ru20 Zn116 2.642363 1_555
Ru20 Zn171 2.660549 1_555
Ru20 Zn44 2.660868 1_555
Ru20 Zn0 2.688384 1_555
Ru20 Zn183 2.698813 1_555
Ru20 Zn92 2.721190 1_555
Ru20 Zn55 2.761035 1_555
Ru20 Zn164 2.902687 1_555
Ru21 Zn123 2.537412 1_555
Ru21 Zn5 2.571909 1_555
Ru21 Zn34 2.595268 1_555
Ru21 Zn207 2.600821 1_555
Ru21 Zn117 2.642363 1_555
Ru21 Zn168 2.660549 1_555
Ru21 Zn45 2.660868 1_555
Ru21 Zn3 2.688384 1_565
Ru21 Zn180 2.698813 1_565
Ru21 Zn93 2.721190 1_565
Ru21 Zn53 2.761035 1_555
Ru21 Zn165 2.902687 1_555
Ru22 Zn122 2.537412 1_556
Ru22 Zn6 2.571909 1_555
Ru22 Zn32 2.595268 1_556
Ru22 Zn206 2.600821 1_556
Ru22 Zn118 2.642363 1_556
Ru22 Zn169 2.660549 1_555
Ru22 Zn46 2.660868 1_555
Ru22 Zn2 2.688384 1_546
Ru22 Zn181 2.698813 1_545
Ru22 Zn94 2.721190 1_546
Ru22 Zn54 2.761035 1_555
Ru22 Zn166 2.902687 1_555
Ru23 Zn121 2.537412 1_554
Ru23 Zn4 2.571909 1_555
Ru23 Zn33 2.595268 1_554
Ru23 Zn205 2.600821 1_554
Ru23 Zn119 2.642363 1_554
Ru23 Zn170 2.660549 1_555
Ru23 Zn47 2.660868 1_555
Ru23 Zn1 2.688384 1_554
Ru23 Zn182 2.698813 1_555
Ru23 Zn95 2.721190 1_554
Ru23 Zn52 2.761035 1_555
Ru23 Zn167 2.902687 1_555
Ru24 Zn120 2.533212 1_555
Ru24 Zn125 2.533212 1_555
Ru24 Zn130 2.533212 1_555
Ru24 Zn100 2.680256 1_555
Ru24 Zn97 2.680256 1_555
Ru24 Zn107 2.680256 1_555
Ru24 Zn154 2.708279 1_555
Ru24 Zn144 2.708279 1_565
Ru24 Zn149 2.708279 1_455
Ru24 Zn202 2.827047 1_565
Ru24 Zn197 2.827047 1_555
Ru24 Zn192 2.827047 1_455
Ru25 Zn128 2.533212 1_555
Ru25 Zn121 2.533212 1_555
Ru25 Zn126 2.533212 1_555
Ru25 Zn96 2.680256 1_555
Ru25 Zn105 2.680256 1_555
Ru25 Zn103 2.680256 1_555
Ru25 Zn152 2.708279 1_556
Ru25 Zn145 2.708279 1_545
Ru25 Zn150 2.708279 1_555
Ru25 Zn198 2.827047 1_556
Ru25 Zn200 2.827047 1_545
Ru25 Zn193 2.827047 1_555
Ru26 Zn124 2.533212 1_555
Ru26 Zn129 2.533212 1_555
Ru26 Zn122 2.533212 1_555
Ru26 Zn104 2.680256 1_555
Ru26 Zn101 2.680256 1_555
Ru26 Zn99 2.680256 1_555
Ru26 Zn153 2.708279 1_554
Ru26 Zn148 2.708279 1_655
Ru26 Zn146 2.708279 1_555
Ru26 Zn194 2.827047 1_655
Ru26 Zn201 2.827047 1_555
Ru26 Zn196 2.827047 1_554
Ru27 Zn123 2.533212 1_555
Ru27 Zn127 2.533212 1_555
Ru27 Zn131 2.533212 1_555
Ru27 Zn102 2.680256 1_555
Ru27 Zn106 2.680256 1_555
Ru27 Zn98 2.680256 1_555
Ru27 Zn155 2.708279 1_555
Ru27 Zn151 2.708279 1_555
Ru27 Zn147 2.708279 1_555
Ru27 Zn203 2.827047 1_555
Ru27 Zn195 2.827047 1_555
Ru27 Zn199 2.827047 1_555
Ru28 Zn142 2.533212 1_555
Ru28 Zn132 2.533212 1_556
Ru28 Zn137 2.533212 1_555
Ru28 Zn119 2.680256 1_555
Ru28 Zn112 2.680256 1_556
Ru28 Zn109 2.680256 1_555
Ru28 Zn156 2.708279 1_555
Ru28 Zn166 2.708279 1_555
Ru28 Zn161 2.708279 1_555
Ru28 Zn203 2.827047 1_555
Ru28 Zn196 2.827047 1_555
Ru28 Zn193 2.827047 1_555
Ru29 Zn138 2.533212 1_555
Ru29 Zn140 2.533212 1_565
Ru29 Zn133 2.533212 1_555
Ru29 Zn115 2.680256 1_555
Ru29 Zn108 2.680256 1_565
Ru29 Zn117 2.680256 1_555
Ru29 Zn157 2.708279 1_555
Ru29 Zn164 2.708279 1_555
Ru29 Zn162 2.708279 1_555
Ru29 Zn200 2.827047 1_555
Ru29 Zn195 2.827047 1_555
Ru29 Zn197 2.827047 1_555
Ru30 Zn134 2.533212 1_555
Ru30 Zn136 2.533212 1_655
Ru30 Zn141 2.533212 1_555
Ru30 Zn111 2.680256 1_555
Ru30 Zn113 2.680256 1_555
Ru30 Zn116 2.680256 1_655
Ru30 Zn165 2.708279 1_555
Ru30 Zn160 2.708279 1_555
Ru30 Zn158 2.708279 1_555
Ru30 Zn192 2.827047 1_555
Ru30 Zn199 2.827047 1_555
Ru30 Zn201 2.827047 1_555
Ru31 Zn135 2.533212 1_554
Ru31 Zn139 2.533212 1_455
Ru31 Zn143 2.533212 1_545
Ru31 Zn110 2.680256 1_545
Ru31 Zn114 2.680256 1_554
Ru31 Zn118 2.680256 1_455
Ru31 Zn163 2.708279 1_555
Ru31 Zn167 2.708279 1_555
Ru31 Zn159 2.708279 1_555
Ru31 Zn202 2.827047 1_555
Ru31 Zn194 2.827047 1_555
Ru31 Zn198 2.827047 1_555
Ru32 Zn81 2.656713 1_555
Ru32 Zn75 2.656713 1_555
Ru32 Zn78 2.656713 1_555
Ru32 Zn87 2.656713 1_555
Ru32 Zn93 2.656713 1_555
Ru32 Zn90 2.656713 1_555
Ru32 Zn63 2.695507 1_655
Ru32 Zn54 2.695507 1_555
Ru32 Zn57 2.695507 1_555
Ru32 Zn66 2.695507 1_545
Ru32 Zn69 2.695507 1_555
Ru32 Zn51 2.695507 1_555
Ru33 Zn77 2.656713 1_555
Ru33 Zn91 2.656713 1_555
Ru33 Zn74 2.656713 1_555
Ru33 Zn83 2.656713 1_555
Ru33 Zn85 2.656713 1_555
Ru33 Zn94 2.656713 1_555
Ru33 Zn67 2.695507 1_565
Ru33 Zn70 2.695507 1_554
Ru33 Zn53 2.695507 1_555
Ru33 Zn50 2.695507 1_555
Ru33 Zn59 2.695507 1_555
Ru33 Zn61 2.695507 1_555
Ru34 Zn73 2.656713 1_555
Ru34 Zn89 2.656713 1_555
Ru34 Zn82 2.656713 1_555
Ru34 Zn79 2.656713 1_555
Ru34 Zn95 2.656713 1_555
Ru34 Zn86 2.656713 1_555
Ru34 Zn71 2.695507 1_556
Ru34 Zn49 2.695507 1_555
Ru34 Zn58 2.695507 1_555
Ru34 Zn55 2.695507 1_555
Ru34 Zn65 2.695507 1_555
Ru34 Zn62 2.695507 1_455
Ru35 Zn84 2.656713 1_555
Ru35 Zn88 2.656713 1_555
Ru35 Zn92 2.656713 1_555
Ru35 Zn72 2.656713 1_555
Ru35 Zn80 2.656713 1_555
Ru35 Zn76 2.656713 1_555
Ru35 Zn68 2.695507 1_555
Ru35 Zn48 2.695507 1_555
Ru35 Zn52 2.695507 1_555
Ru35 Zn56 2.695507 1_555
Ru35 Zn60 2.695507 1_555
Ru35 Zn64 2.695507 1_555
