# generated using pymatgen
data_Li2Mg10B12Rh19
_symmetry_space_group_name_H-M   'P 1'
_cell_length_a   5.75813600
_cell_length_b   27.86580600
_cell_length_c   53.36989800
_cell_angle_alpha   90.00000000
_cell_angle_beta   90.00000000
_cell_angle_gamma   90.00000000
_symmetry_Int_Tables_number   1
_chemical_formula_structural   Li2Mg10B12Rh19
_chemical_formula_sum   'Li32 Mg160 B192 Rh304'
_cell_volume   8563.47235781
_cell_formula_units_Z   16
loop_
 _symmetry_equiv_pos_site_id
 _symmetry_equiv_pos_as_xyz
  1  'x, y, z'
loop_
 _atom_site_type_symbol
 _atom_site_label
 _atom_site_symmetry_multiplicity
 _atom_site_fract_x
 _atom_site_fract_y
 _atom_site_fract_z
 _atom_site_occupancy
  Li  Li0_0  1  0.00000000  0.00568850  0.02218950  1
  Li  Li0_1  1  0.00000000  0.00568850  0.52218950  1
  Li  Li0_2  1  0.00000000  0.50568850  0.02218950  1
  Li  Li0_3  1  0.00000000  0.50568850  0.52218950  1
  Li  Li0_4  1  0.50000000  0.00568850  0.02218950  1
  Li  Li0_5  1  0.50000000  0.00568850  0.52218950  1
  Li  Li0_6  1  0.50000000  0.50568850  0.02218950  1
  Li  Li0_7  1  0.50000000  0.50568850  0.52218950  1
  Li  Li1_0  1  0.00000000  0.49431150  0.47781050  1
  Li  Li1_1  1  0.00000000  0.49431150  0.97781050  1
  Li  Li1_2  1  0.00000000  0.99431150  0.47781050  1
  Li  Li1_3  1  0.00000000  0.99431150  0.97781050  1
  Li  Li1_4  1  0.50000000  0.49431150  0.47781050  1
  Li  Li1_5  1  0.50000000  0.49431150  0.97781050  1
  Li  Li1_6  1  0.50000000  0.99431150  0.47781050  1
  Li  Li1_7  1  0.50000000  0.99431150  0.97781050  1
  Li  Li2_0  1  0.00000000  0.24431150  0.27218950  1
  Li  Li2_1  1  0.00000000  0.24431150  0.77218950  1
  Li  Li2_2  1  0.00000000  0.74431150  0.27218950  1
  Li  Li2_3  1  0.00000000  0.74431150  0.77218950  1
  Li  Li2_4  1  0.50000000  0.24431150  0.27218950  1
  Li  Li2_5  1  0.50000000  0.24431150  0.77218950  1
  Li  Li2_6  1  0.50000000  0.74431150  0.27218950  1
  Li  Li2_7  1  0.50000000  0.74431150  0.77218950  1
  Li  Li3_0  1  0.00000000  0.25568850  0.22781050  1
  Li  Li3_1  1  0.00000000  0.25568850  0.72781050  1
  Li  Li3_2  1  0.00000000  0.75568850  0.22781050  1
  Li  Li3_3  1  0.00000000  0.75568850  0.72781050  1
  Li  Li3_4  1  0.50000000  0.25568850  0.22781050  1
  Li  Li3_5  1  0.50000000  0.25568850  0.72781050  1
  Li  Li3_6  1  0.50000000  0.75568850  0.22781050  1
  Li  Li3_7  1  0.50000000  0.75568850  0.72781050  1
  Mg  Mg0_0  1  0.00000000  0.01862800  0.11418550  1
  Mg  Mg0_1  1  0.00000000  0.01862800  0.61418550  1
  Mg  Mg0_2  1  0.00000000  0.51862800  0.11418550  1
  Mg  Mg0_3  1  0.00000000  0.51862800  0.61418550  1
  Mg  Mg0_4  1  0.50000000  0.01862800  0.11418550  1
  Mg  Mg0_5  1  0.50000000  0.01862800  0.61418550  1
  Mg  Mg0_6  1  0.50000000  0.51862800  0.11418550  1
  Mg  Mg0_7  1  0.50000000  0.51862800  0.61418550  1
  Mg  Mg1_0  1  0.00000000  0.48137200  0.38581450  1
  Mg  Mg1_1  1  0.00000000  0.48137200  0.88581450  1
  Mg  Mg1_2  1  0.00000000  0.98137200  0.38581450  1
  Mg  Mg1_3  1  0.00000000  0.98137200  0.88581450  1
  Mg  Mg1_4  1  0.50000000  0.48137200  0.38581450  1
  Mg  Mg1_5  1  0.50000000  0.48137200  0.88581450  1
  Mg  Mg1_6  1  0.50000000  0.98137200  0.38581450  1
  Mg  Mg1_7  1  0.50000000  0.98137200  0.88581450  1
  Mg  Mg2_0  1  0.00000000  0.23137200  0.36418550  1
  Mg  Mg2_1  1  0.00000000  0.23137200  0.86418550  1
  Mg  Mg2_2  1  0.00000000  0.73137200  0.36418550  1
  Mg  Mg2_3  1  0.00000000  0.73137200  0.86418550  1
  Mg  Mg2_4  1  0.50000000  0.23137200  0.36418550  1
  Mg  Mg2_5  1  0.50000000  0.23137200  0.86418550  1
  Mg  Mg2_6  1  0.50000000  0.73137200  0.36418550  1
  Mg  Mg2_7  1  0.50000000  0.73137200  0.86418550  1
  Mg  Mg3_0  1  0.00000000  0.26862800  0.13581450  1
  Mg  Mg3_1  1  0.00000000  0.26862800  0.63581450  1
  Mg  Mg3_2  1  0.00000000  0.76862800  0.13581450  1
  Mg  Mg3_3  1  0.00000000  0.76862800  0.63581450  1
  Mg  Mg3_4  1  0.50000000  0.26862800  0.13581450  1
  Mg  Mg3_5  1  0.50000000  0.26862800  0.63581450  1
  Mg  Mg3_6  1  0.50000000  0.76862800  0.13581450  1
  Mg  Mg3_7  1  0.50000000  0.76862800  0.63581450  1
  Mg  Mg4_0  1  0.00000000  0.17296050  0.01634200  1
  Mg  Mg4_1  1  0.00000000  0.17296050  0.51634200  1
  Mg  Mg4_2  1  0.00000000  0.67296050  0.01634200  1
  Mg  Mg4_3  1  0.00000000  0.67296050  0.51634200  1
  Mg  Mg4_4  1  0.50000000  0.17296050  0.01634200  1
  Mg  Mg4_5  1  0.50000000  0.17296050  0.51634200  1
  Mg  Mg4_6  1  0.50000000  0.67296050  0.01634200  1
  Mg  Mg4_7  1  0.50000000  0.67296050  0.51634200  1
  Mg  Mg5_0  1  0.00000000  0.32703950  0.48365800  1
  Mg  Mg5_1  1  0.00000000  0.32703950  0.98365800  1
  Mg  Mg5_2  1  0.00000000  0.82703950  0.48365800  1
  Mg  Mg5_3  1  0.00000000  0.82703950  0.98365800  1
  Mg  Mg5_4  1  0.50000000  0.32703950  0.48365800  1
  Mg  Mg5_5  1  0.50000000  0.32703950  0.98365800  1
  Mg  Mg5_6  1  0.50000000  0.82703950  0.48365800  1
  Mg  Mg5_7  1  0.50000000  0.82703950  0.98365800  1
  Mg  Mg6_0  1  0.00000000  0.07703950  0.26634200  1
  Mg  Mg6_1  1  0.00000000  0.07703950  0.76634200  1
  Mg  Mg6_2  1  0.00000000  0.57703950  0.26634200  1
  Mg  Mg6_3  1  0.00000000  0.57703950  0.76634200  1
  Mg  Mg6_4  1  0.50000000  0.07703950  0.26634200  1
  Mg  Mg6_5  1  0.50000000  0.07703950  0.76634200  1
  Mg  Mg6_6  1  0.50000000  0.57703950  0.26634200  1
  Mg  Mg6_7  1  0.50000000  0.57703950  0.76634200  1
  Mg  Mg7_0  1  0.00000000  0.42296050  0.23365800  1
  Mg  Mg7_1  1  0.00000000  0.42296050  0.73365800  1
  Mg  Mg7_2  1  0.00000000  0.92296050  0.23365800  1
  Mg  Mg7_3  1  0.00000000  0.92296050  0.73365800  1
  Mg  Mg7_4  1  0.50000000  0.42296050  0.23365800  1
  Mg  Mg7_5  1  0.50000000  0.42296050  0.73365800  1
  Mg  Mg7_6  1  0.50000000  0.92296050  0.23365800  1
  Mg  Mg7_7  1  0.50000000  0.92296050  0.73365800  1
  Mg  Mg8_0  1  0.00000000  0.03391100  0.16461650  1
  Mg  Mg8_1  1  0.00000000  0.03391100  0.66461650  1
  Mg  Mg8_2  1  0.00000000  0.53391100  0.16461650  1
  Mg  Mg8_3  1  0.00000000  0.53391100  0.66461650  1
  Mg  Mg8_4  1  0.50000000  0.03391100  0.16461650  1
  Mg  Mg8_5  1  0.50000000  0.03391100  0.66461650  1
  Mg  Mg8_6  1  0.50000000  0.53391100  0.16461650  1
  Mg  Mg8_7  1  0.50000000  0.53391100  0.66461650  1
  Mg  Mg9_0  1  0.00000000  0.46608900  0.33538350  1
  Mg  Mg9_1  1  0.00000000  0.46608900  0.83538350  1
  Mg  Mg9_2  1  0.00000000  0.96608900  0.33538350  1
  Mg  Mg9_3  1  0.00000000  0.96608900  0.83538350  1
  Mg  Mg9_4  1  0.50000000  0.46608900  0.33538350  1
  Mg  Mg9_5  1  0.50000000  0.46608900  0.83538350  1
  Mg  Mg9_6  1  0.50000000  0.96608900  0.33538350  1
  Mg  Mg9_7  1  0.50000000  0.96608900  0.83538350  1
  Mg  Mg10_0  1  0.00000000  0.21608900  0.41461650  1
  Mg  Mg10_1  1  0.00000000  0.21608900  0.91461650  1
  Mg  Mg10_2  1  0.00000000  0.71608900  0.41461650  1
  Mg  Mg10_3  1  0.00000000  0.71608900  0.91461650  1
  Mg  Mg10_4  1  0.50000000  0.21608900  0.41461650  1
  Mg  Mg10_5  1  0.50000000  0.21608900  0.91461650  1
  Mg  Mg10_6  1  0.50000000  0.71608900  0.41461650  1
  Mg  Mg10_7  1  0.50000000  0.71608900  0.91461650  1
  Mg  Mg11_0  1  0.00000000  0.28391100  0.08538350  1
  Mg  Mg11_1  1  0.00000000  0.28391100  0.58538350  1
  Mg  Mg11_2  1  0.00000000  0.78391100  0.08538350  1
  Mg  Mg11_3  1  0.00000000  0.78391100  0.58538350  1
  Mg  Mg11_4  1  0.50000000  0.28391100  0.08538350  1
  Mg  Mg11_5  1  0.50000000  0.28391100  0.58538350  1
  Mg  Mg11_6  1  0.50000000  0.78391100  0.08538350  1
  Mg  Mg11_7  1  0.50000000  0.78391100  0.58538350  1
  Mg  Mg12_0  1  0.00000000  0.12950600  0.17940000  1
  Mg  Mg12_1  1  0.00000000  0.12950600  0.67940000  1
  Mg  Mg12_2  1  0.00000000  0.62950600  0.17940000  1
  Mg  Mg12_3  1  0.00000000  0.62950600  0.67940000  1
  Mg  Mg12_4  1  0.50000000  0.12950600  0.17940000  1
  Mg  Mg12_5  1  0.50000000  0.12950600  0.67940000  1
  Mg  Mg12_6  1  0.50000000  0.62950600  0.17940000  1
  Mg  Mg12_7  1  0.50000000  0.62950600  0.67940000  1
  Mg  Mg13_0  1  0.00000000  0.37049400  0.32060000  1
  Mg  Mg13_1  1  0.00000000  0.37049400  0.82060000  1
  Mg  Mg13_2  1  0.00000000  0.87049400  0.32060000  1
  Mg  Mg13_3  1  0.00000000  0.87049400  0.82060000  1
  Mg  Mg13_4  1  0.50000000  0.37049400  0.32060000  1
  Mg  Mg13_5  1  0.50000000  0.37049400  0.82060000  1
  Mg  Mg13_6  1  0.50000000  0.87049400  0.32060000  1
  Mg  Mg13_7  1  0.50000000  0.87049400  0.82060000  1
  Mg  Mg14_0  1  0.00000000  0.12049400  0.42940000  1
  Mg  Mg14_1  1  0.00000000  0.12049400  0.92940000  1
  Mg  Mg14_2  1  0.00000000  0.62049400  0.42940000  1
  Mg  Mg14_3  1  0.00000000  0.62049400  0.92940000  1
  Mg  Mg14_4  1  0.50000000  0.12049400  0.42940000  1
  Mg  Mg14_5  1  0.50000000  0.12049400  0.92940000  1
  Mg  Mg14_6  1  0.50000000  0.62049400  0.42940000  1
  Mg  Mg14_7  1  0.50000000  0.62049400  0.92940000  1
  Mg  Mg15_0  1  0.00000000  0.37950600  0.07060000  1
  Mg  Mg15_1  1  0.00000000  0.37950600  0.57060000  1
  Mg  Mg15_2  1  0.00000000  0.87950600  0.07060000  1
  Mg  Mg15_3  1  0.00000000  0.87950600  0.57060000  1
  Mg  Mg15_4  1  0.50000000  0.37950600  0.07060000  1
  Mg  Mg15_5  1  0.50000000  0.37950600  0.57060000  1
  Mg  Mg15_6  1  0.50000000  0.87950600  0.07060000  1
  Mg  Mg15_7  1  0.50000000  0.87950600  0.57060000  1
  Mg  Mg16_0  1  0.00000000  0.10751300  0.09298700  1
  Mg  Mg16_1  1  0.00000000  0.10751300  0.59298700  1
  Mg  Mg16_2  1  0.00000000  0.60751300  0.09298700  1
  Mg  Mg16_3  1  0.00000000  0.60751300  0.59298700  1
  Mg  Mg16_4  1  0.50000000  0.10751300  0.09298700  1
  Mg  Mg16_5  1  0.50000000  0.10751300  0.59298700  1
  Mg  Mg16_6  1  0.50000000  0.60751300  0.09298700  1
  Mg  Mg16_7  1  0.50000000  0.60751300  0.59298700  1
  Mg  Mg17_0  1  0.00000000  0.39248700  0.40701300  1
  Mg  Mg17_1  1  0.00000000  0.39248700  0.90701300  1
  Mg  Mg17_2  1  0.00000000  0.89248700  0.40701300  1
  Mg  Mg17_3  1  0.00000000  0.89248700  0.90701300  1
  Mg  Mg17_4  1  0.50000000  0.39248700  0.40701300  1
  Mg  Mg17_5  1  0.50000000  0.39248700  0.90701300  1
  Mg  Mg17_6  1  0.50000000  0.89248700  0.40701300  1
  Mg  Mg17_7  1  0.50000000  0.89248700  0.90701300  1
  Mg  Mg18_0  1  0.00000000  0.14248700  0.34298700  1
  Mg  Mg18_1  1  0.00000000  0.14248700  0.84298700  1
  Mg  Mg18_2  1  0.00000000  0.64248700  0.34298700  1
  Mg  Mg18_3  1  0.00000000  0.64248700  0.84298700  1
  Mg  Mg18_4  1  0.50000000  0.14248700  0.34298700  1
  Mg  Mg18_5  1  0.50000000  0.14248700  0.84298700  1
  Mg  Mg18_6  1  0.50000000  0.64248700  0.34298700  1
  Mg  Mg18_7  1  0.50000000  0.64248700  0.84298700  1
  Mg  Mg19_0  1  0.00000000  0.35751300  0.15701300  1
  Mg  Mg19_1  1  0.00000000  0.35751300  0.65701300  1
  Mg  Mg19_2  1  0.00000000  0.85751300  0.15701300  1
  Mg  Mg19_3  1  0.00000000  0.85751300  0.65701300  1
  Mg  Mg19_4  1  0.50000000  0.35751300  0.15701300  1
  Mg  Mg19_5  1  0.50000000  0.35751300  0.65701300  1
  Mg  Mg19_6  1  0.50000000  0.85751300  0.15701300  1
  Mg  Mg19_7  1  0.50000000  0.85751300  0.65701300  1
  B  B0_0  1  0.00000000  0.16134150  0.13158950  1
  B  B0_1  1  0.00000000  0.16134150  0.63158950  1
  B  B0_2  1  0.00000000  0.66134150  0.13158950  1
  B  B0_3  1  0.00000000  0.66134150  0.63158950  1
  B  B0_4  1  0.50000000  0.16134150  0.13158950  1
  B  B0_5  1  0.50000000  0.16134150  0.63158950  1
  B  B0_6  1  0.50000000  0.66134150  0.13158950  1
  B  B0_7  1  0.50000000  0.66134150  0.63158950  1
  B  B1_0  1  0.00000000  0.33865850  0.36841050  1
  B  B1_1  1  0.00000000  0.33865850  0.86841050  1
  B  B1_2  1  0.00000000  0.83865850  0.36841050  1
  B  B1_3  1  0.00000000  0.83865850  0.86841050  1
  B  B1_4  1  0.50000000  0.33865850  0.36841050  1
  B  B1_5  1  0.50000000  0.33865850  0.86841050  1
  B  B1_6  1  0.50000000  0.83865850  0.36841050  1
  B  B1_7  1  0.50000000  0.83865850  0.86841050  1
  B  B2_0  1  0.00000000  0.08865850  0.38158950  1
  B  B2_1  1  0.00000000  0.08865850  0.88158950  1
  B  B2_2  1  0.00000000  0.58865850  0.38158950  1
  B  B2_3  1  0.00000000  0.58865850  0.88158950  1
  B  B2_4  1  0.50000000  0.08865850  0.38158950  1
  B  B2_5  1  0.50000000  0.08865850  0.88158950  1
  B  B2_6  1  0.50000000  0.58865850  0.38158950  1
  B  B2_7  1  0.50000000  0.58865850  0.88158950  1
  B  B3_0  1  0.00000000  0.41134150  0.11841050  1
  B  B3_1  1  0.00000000  0.41134150  0.61841050  1
  B  B3_2  1  0.00000000  0.91134150  0.11841050  1
  B  B3_3  1  0.00000000  0.91134150  0.61841050  1
  B  B3_4  1  0.50000000  0.41134150  0.11841050  1
  B  B3_5  1  0.50000000  0.41134150  0.61841050  1
  B  B3_6  1  0.50000000  0.91134150  0.11841050  1
  B  B3_7  1  0.50000000  0.91134150  0.61841050  1
  B  B4_0  1  0.00000000  0.19215600  0.07155450  1
  B  B4_1  1  0.00000000  0.19215600  0.57155450  1
  B  B4_2  1  0.00000000  0.69215600  0.07155450  1
  B  B4_3  1  0.00000000  0.69215600  0.57155450  1
  B  B4_4  1  0.50000000  0.19215600  0.07155450  1
  B  B4_5  1  0.50000000  0.19215600  0.57155450  1
  B  B4_6  1  0.50000000  0.69215600  0.07155450  1
  B  B4_7  1  0.50000000  0.69215600  0.57155450  1
  B  B5_0  1  0.00000000  0.30784400  0.42844550  1
  B  B5_1  1  0.00000000  0.30784400  0.92844550  1
  B  B5_2  1  0.00000000  0.80784400  0.42844550  1
  B  B5_3  1  0.00000000  0.80784400  0.92844550  1
  B  B5_4  1  0.50000000  0.30784400  0.42844550  1
  B  B5_5  1  0.50000000  0.30784400  0.92844550  1
  B  B5_6  1  0.50000000  0.80784400  0.42844550  1
  B  B5_7  1  0.50000000  0.80784400  0.92844550  1
  B  B6_0  1  0.00000000  0.05784400  0.32155450  1
  B  B6_1  1  0.00000000  0.05784400  0.82155450  1
  B  B6_2  1  0.00000000  0.55784400  0.32155450  1
  B  B6_3  1  0.00000000  0.55784400  0.82155450  1
  B  B6_4  1  0.50000000  0.05784400  0.32155450  1
  B  B6_5  1  0.50000000  0.05784400  0.82155450  1
  B  B6_6  1  0.50000000  0.55784400  0.32155450  1
  B  B6_7  1  0.50000000  0.55784400  0.82155450  1
  B  B7_0  1  0.00000000  0.44215600  0.17844550  1
  B  B7_1  1  0.00000000  0.44215600  0.67844550  1
  B  B7_2  1  0.00000000  0.94215600  0.17844550  1
  B  B7_3  1  0.00000000  0.94215600  0.67844550  1
  B  B7_4  1  0.50000000  0.44215600  0.17844550  1
  B  B7_5  1  0.50000000  0.44215600  0.67844550  1
  B  B7_6  1  0.50000000  0.94215600  0.17844550  1
  B  B7_7  1  0.50000000  0.94215600  0.67844550  1
  B  B8_0  1  0.00000000  0.08399950  0.04176700  1
  B  B8_1  1  0.00000000  0.08399950  0.54176700  1
  B  B8_2  1  0.00000000  0.58399950  0.04176700  1
  B  B8_3  1  0.00000000  0.58399950  0.54176700  1
  B  B8_4  1  0.50000000  0.08399950  0.04176700  1
  B  B8_5  1  0.50000000  0.08399950  0.54176700  1
  B  B8_6  1  0.50000000  0.58399950  0.04176700  1
  B  B8_7  1  0.50000000  0.58399950  0.54176700  1
  B  B9_0  1  0.00000000  0.41600050  0.45823300  1
  B  B9_1  1  0.00000000  0.41600050  0.95823300  1
  B  B9_2  1  0.00000000  0.91600050  0.45823300  1
  B  B9_3  1  0.00000000  0.91600050  0.95823300  1
  B  B9_4  1  0.50000000  0.41600050  0.45823300  1
  B  B9_5  1  0.50000000  0.41600050  0.95823300  1
  B  B9_6  1  0.50000000  0.91600050  0.45823300  1
  B  B9_7  1  0.50000000  0.91600050  0.95823300  1
  B  B10_0  1  0.00000000  0.16600050  0.29176700  1
  B  B10_1  1  0.00000000  0.16600050  0.79176700  1
  B  B10_2  1  0.00000000  0.66600050  0.29176700  1
  B  B10_3  1  0.00000000  0.66600050  0.79176700  1
  B  B10_4  1  0.50000000  0.16600050  0.29176700  1
  B  B10_5  1  0.50000000  0.16600050  0.79176700  1
  B  B10_6  1  0.50000000  0.66600050  0.29176700  1
  B  B10_7  1  0.50000000  0.66600050  0.79176700  1
  B  B11_0  1  0.00000000  0.33399950  0.20823300  1
  B  B11_1  1  0.00000000  0.33399950  0.70823300  1
  B  B11_2  1  0.00000000  0.83399950  0.20823300  1
  B  B11_3  1  0.00000000  0.83399950  0.70823300  1
  B  B11_4  1  0.50000000  0.33399950  0.20823300  1
  B  B11_5  1  0.50000000  0.33399950  0.70823300  1
  B  B11_6  1  0.50000000  0.83399950  0.20823300  1
  B  B11_7  1  0.50000000  0.83399950  0.70823300  1
  B  B12_0  1  0.00000000  0.22715050  0.18484100  1
  B  B12_1  1  0.00000000  0.22715050  0.68484100  1
  B  B12_2  1  0.00000000  0.72715050  0.18484100  1
  B  B12_3  1  0.00000000  0.72715050  0.68484100  1
  B  B12_4  1  0.50000000  0.22715050  0.18484100  1
  B  B12_5  1  0.50000000  0.22715050  0.68484100  1
  B  B12_6  1  0.50000000  0.72715050  0.18484100  1
  B  B12_7  1  0.50000000  0.72715050  0.68484100  1
  B  B13_0  1  0.00000000  0.27284950  0.31515900  1
  B  B13_1  1  0.00000000  0.27284950  0.81515900  1
  B  B13_2  1  0.00000000  0.77284950  0.31515900  1
  B  B13_3  1  0.00000000  0.77284950  0.81515900  1
  B  B13_4  1  0.50000000  0.27284950  0.31515900  1
  B  B13_5  1  0.50000000  0.27284950  0.81515900  1
  B  B13_6  1  0.50000000  0.77284950  0.31515900  1
  B  B13_7  1  0.50000000  0.77284950  0.81515900  1
  B  B14_0  1  0.00000000  0.02284950  0.43484100  1
  B  B14_1  1  0.00000000  0.02284950  0.93484100  1
  B  B14_2  1  0.00000000  0.52284950  0.43484100  1
  B  B14_3  1  0.00000000  0.52284950  0.93484100  1
  B  B14_4  1  0.50000000  0.02284950  0.43484100  1
  B  B14_5  1  0.50000000  0.02284950  0.93484100  1
  B  B14_6  1  0.50000000  0.52284950  0.43484100  1
  B  B14_7  1  0.50000000  0.52284950  0.93484100  1
  B  B15_0  1  0.00000000  0.47715050  0.06515900  1
  B  B15_1  1  0.00000000  0.47715050  0.56515900  1
  B  B15_2  1  0.00000000  0.97715050  0.06515900  1
  B  B15_3  1  0.00000000  0.97715050  0.56515900  1
  B  B15_4  1  0.50000000  0.47715050  0.06515900  1
  B  B15_5  1  0.50000000  0.47715050  0.56515900  1
  B  B15_6  1  0.50000000  0.97715050  0.06515900  1
  B  B15_7  1  0.50000000  0.97715050  0.56515900  1
  B  B16_0  1  0.00000000  0.02840350  0.22216100  1
  B  B16_1  1  0.00000000  0.02840350  0.72216100  1
  B  B16_2  1  0.00000000  0.52840350  0.22216100  1
  B  B16_3  1  0.00000000  0.52840350  0.72216100  1
  B  B16_4  1  0.50000000  0.02840350  0.22216100  1
  B  B16_5  1  0.50000000  0.02840350  0.72216100  1
  B  B16_6  1  0.50000000  0.52840350  0.22216100  1
  B  B16_7  1  0.50000000  0.52840350  0.72216100  1
  B  B17_0  1  0.00000000  0.47159650  0.27783900  1
  B  B17_1  1  0.00000000  0.47159650  0.77783900  1
  B  B17_2  1  0.00000000  0.97159650  0.27783900  1
  B  B17_3  1  0.00000000  0.97159650  0.77783900  1
  B  B17_4  1  0.50000000  0.47159650  0.27783900  1
  B  B17_5  1  0.50000000  0.47159650  0.77783900  1
  B  B17_6  1  0.50000000  0.97159650  0.27783900  1
  B  B17_7  1  0.50000000  0.97159650  0.77783900  1
  B  B18_0  1  0.00000000  0.22159650  0.47216100  1
  B  B18_1  1  0.00000000  0.22159650  0.97216100  1
  B  B18_2  1  0.00000000  0.72159650  0.47216100  1
  B  B18_3  1  0.00000000  0.72159650  0.97216100  1
  B  B18_4  1  0.50000000  0.22159650  0.47216100  1
  B  B18_5  1  0.50000000  0.22159650  0.97216100  1
  B  B18_6  1  0.50000000  0.72159650  0.47216100  1
  B  B18_7  1  0.50000000  0.72159650  0.97216100  1
  B  B19_0  1  0.00000000  0.27840350  0.02783900  1
  B  B19_1  1  0.00000000  0.27840350  0.52783900  1
  B  B19_2  1  0.00000000  0.77840350  0.02783900  1
  B  B19_3  1  0.00000000  0.77840350  0.52783900  1
  B  B19_4  1  0.50000000  0.27840350  0.02783900  1
  B  B19_5  1  0.50000000  0.27840350  0.52783900  1
  B  B19_6  1  0.50000000  0.77840350  0.02783900  1
  B  B19_7  1  0.50000000  0.77840350  0.52783900  1
  B  B20_0  1  0.00000000  0.14564250  0.23067050  1
  B  B20_1  1  0.00000000  0.14564250  0.73067050  1
  B  B20_2  1  0.00000000  0.64564250  0.23067050  1
  B  B20_3  1  0.00000000  0.64564250  0.73067050  1
  B  B20_4  1  0.50000000  0.14564250  0.23067050  1
  B  B20_5  1  0.50000000  0.14564250  0.73067050  1
  B  B20_6  1  0.50000000  0.64564250  0.23067050  1
  B  B20_7  1  0.50000000  0.64564250  0.73067050  1
  B  B21_0  1  0.00000000  0.35435750  0.26932950  1
  B  B21_1  1  0.00000000  0.35435750  0.76932950  1
  B  B21_2  1  0.00000000  0.85435750  0.26932950  1
  B  B21_3  1  0.00000000  0.85435750  0.76932950  1
  B  B21_4  1  0.50000000  0.35435750  0.26932950  1
  B  B21_5  1  0.50000000  0.35435750  0.76932950  1
  B  B21_6  1  0.50000000  0.85435750  0.26932950  1
  B  B21_7  1  0.50000000  0.85435750  0.76932950  1
  B  B22_0  1  0.00000000  0.10435750  0.48067050  1
  B  B22_1  1  0.00000000  0.10435750  0.98067050  1
  B  B22_2  1  0.00000000  0.60435750  0.48067050  1
  B  B22_3  1  0.00000000  0.60435750  0.98067050  1
  B  B22_4  1  0.50000000  0.10435750  0.48067050  1
  B  B22_5  1  0.50000000  0.10435750  0.98067050  1
  B  B22_6  1  0.50000000  0.60435750  0.48067050  1
  B  B22_7  1  0.50000000  0.60435750  0.98067050  1
  B  B23_0  1  0.00000000  0.39564250  0.01932950  1
  B  B23_1  1  0.00000000  0.39564250  0.51932950  1
  B  B23_2  1  0.00000000  0.89564250  0.01932950  1
  B  B23_3  1  0.00000000  0.89564250  0.51932950  1
  B  B23_4  1  0.50000000  0.39564250  0.01932950  1
  B  B23_5  1  0.50000000  0.39564250  0.51932950  1
  B  B23_6  1  0.50000000  0.89564250  0.01932950  1
  B  B23_7  1  0.50000000  0.89564250  0.51932950  1
  Rh  Rh0_0  1  0.25000000  0.13880150  0.05571900  1
  Rh  Rh0_1  1  0.25000000  0.13880150  0.55571900  1
  Rh  Rh0_2  1  0.25000000  0.63880150  0.05571900  1
  Rh  Rh0_3  1  0.25000000  0.63880150  0.55571900  1
  Rh  Rh0_4  1  0.75000000  0.13880150  0.05571900  1
  Rh  Rh0_5  1  0.75000000  0.13880150  0.55571900  1
  Rh  Rh0_6  1  0.75000000  0.63880150  0.05571900  1
  Rh  Rh0_7  1  0.75000000  0.63880150  0.55571900  1
  Rh  Rh1_0  1  0.25000000  0.36119850  0.44428100  1
  Rh  Rh1_1  1  0.25000000  0.36119850  0.94428100  1
  Rh  Rh1_2  1  0.25000000  0.86119850  0.44428100  1
  Rh  Rh1_3  1  0.25000000  0.86119850  0.94428100  1
  Rh  Rh1_4  1  0.75000000  0.36119850  0.44428100  1
  Rh  Rh1_5  1  0.75000000  0.36119850  0.94428100  1
  Rh  Rh1_6  1  0.75000000  0.86119850  0.44428100  1
  Rh  Rh1_7  1  0.75000000  0.86119850  0.94428100  1
  Rh  Rh2_0  1  0.25000000  0.11119850  0.30571900  1
  Rh  Rh2_1  1  0.25000000  0.11119850  0.80571900  1
  Rh  Rh2_2  1  0.25000000  0.61119850  0.30571900  1
  Rh  Rh2_3  1  0.25000000  0.61119850  0.80571900  1
  Rh  Rh2_4  1  0.75000000  0.11119850  0.30571900  1
  Rh  Rh2_5  1  0.75000000  0.11119850  0.80571900  1
  Rh  Rh2_6  1  0.75000000  0.61119850  0.30571900  1
  Rh  Rh2_7  1  0.75000000  0.61119850  0.80571900  1
  Rh  Rh3_0  1  0.25000000  0.38880150  0.19428100  1
  Rh  Rh3_1  1  0.25000000  0.38880150  0.69428100  1
  Rh  Rh3_2  1  0.25000000  0.88880150  0.19428100  1
  Rh  Rh3_3  1  0.25000000  0.88880150  0.69428100  1
  Rh  Rh3_4  1  0.75000000  0.38880150  0.19428100  1
  Rh  Rh3_5  1  0.75000000  0.38880150  0.69428100  1
  Rh  Rh3_6  1  0.75000000  0.88880150  0.19428100  1
  Rh  Rh3_7  1  0.75000000  0.88880150  0.69428100  1
  Rh  Rh4_0  1  0.25000000  0.03673150  0.06206600  1
  Rh  Rh4_1  1  0.25000000  0.03673150  0.56206600  1
  Rh  Rh4_2  1  0.25000000  0.53673150  0.06206600  1
  Rh  Rh4_3  1  0.25000000  0.53673150  0.56206600  1
  Rh  Rh4_4  1  0.75000000  0.03673150  0.06206600  1
  Rh  Rh4_5  1  0.75000000  0.03673150  0.56206600  1
  Rh  Rh4_6  1  0.75000000  0.53673150  0.06206600  1
  Rh  Rh4_7  1  0.75000000  0.53673150  0.56206600  1
  Rh  Rh5_0  1  0.25000000  0.46326850  0.43793400  1
  Rh  Rh5_1  1  0.25000000  0.46326850  0.93793400  1
  Rh  Rh5_2  1  0.25000000  0.96326850  0.43793400  1
  Rh  Rh5_3  1  0.25000000  0.96326850  0.93793400  1
  Rh  Rh5_4  1  0.75000000  0.46326850  0.43793400  1
  Rh  Rh5_5  1  0.75000000  0.46326850  0.93793400  1
  Rh  Rh5_6  1  0.75000000  0.96326850  0.43793400  1
  Rh  Rh5_7  1  0.75000000  0.96326850  0.93793400  1
  Rh  Rh6_0  1  0.25000000  0.21326850  0.31206600  1
  Rh  Rh6_1  1  0.25000000  0.21326850  0.81206600  1
  Rh  Rh6_2  1  0.25000000  0.71326850  0.31206600  1
  Rh  Rh6_3  1  0.25000000  0.71326850  0.81206600  1
  Rh  Rh6_4  1  0.75000000  0.21326850  0.31206600  1
  Rh  Rh6_5  1  0.75000000  0.21326850  0.81206600  1
  Rh  Rh6_6  1  0.75000000  0.71326850  0.31206600  1
  Rh  Rh6_7  1  0.75000000  0.71326850  0.81206600  1
  Rh  Rh7_0  1  0.25000000  0.28673150  0.18793400  1
  Rh  Rh7_1  1  0.25000000  0.28673150  0.68793400  1
  Rh  Rh7_2  1  0.25000000  0.78673150  0.18793400  1
  Rh  Rh7_3  1  0.25000000  0.78673150  0.68793400  1
  Rh  Rh7_4  1  0.75000000  0.28673150  0.18793400  1
  Rh  Rh7_5  1  0.75000000  0.28673150  0.68793400  1
  Rh  Rh7_6  1  0.75000000  0.78673150  0.18793400  1
  Rh  Rh7_7  1  0.75000000  0.78673150  0.68793400  1
  Rh  Rh8_0  1  0.25000000  0.08693900  0.21940800  1
  Rh  Rh8_1  1  0.25000000  0.08693900  0.71940800  1
  Rh  Rh8_2  1  0.25000000  0.58693900  0.21940800  1
  Rh  Rh8_3  1  0.25000000  0.58693900  0.71940800  1
  Rh  Rh8_4  1  0.75000000  0.08693900  0.21940800  1
  Rh  Rh8_5  1  0.75000000  0.08693900  0.71940800  1
  Rh  Rh8_6  1  0.75000000  0.58693900  0.21940800  1
  Rh  Rh8_7  1  0.75000000  0.58693900  0.71940800  1
  Rh  Rh9_0  1  0.25000000  0.41306100  0.28059200  1
  Rh  Rh9_1  1  0.25000000  0.41306100  0.78059200  1
  Rh  Rh9_2  1  0.25000000  0.91306100  0.28059200  1
  Rh  Rh9_3  1  0.25000000  0.91306100  0.78059200  1
  Rh  Rh9_4  1  0.75000000  0.41306100  0.28059200  1
  Rh  Rh9_5  1  0.75000000  0.41306100  0.78059200  1
  Rh  Rh9_6  1  0.75000000  0.91306100  0.28059200  1
  Rh  Rh9_7  1  0.75000000  0.91306100  0.78059200  1
  Rh  Rh10_0  1  0.25000000  0.16306100  0.46940800  1
  Rh  Rh10_1  1  0.25000000  0.16306100  0.96940800  1
  Rh  Rh10_2  1  0.25000000  0.66306100  0.46940800  1
  Rh  Rh10_3  1  0.25000000  0.66306100  0.96940800  1
  Rh  Rh10_4  1  0.75000000  0.16306100  0.46940800  1
  Rh  Rh10_5  1  0.75000000  0.16306100  0.96940800  1
  Rh  Rh10_6  1  0.75000000  0.66306100  0.46940800  1
  Rh  Rh10_7  1  0.75000000  0.66306100  0.96940800  1
  Rh  Rh11_0  1  0.25000000  0.33693900  0.03059200  1
  Rh  Rh11_1  1  0.25000000  0.33693900  0.53059200  1
  Rh  Rh11_2  1  0.25000000  0.83693900  0.03059200  1
  Rh  Rh11_3  1  0.25000000  0.83693900  0.53059200  1
  Rh  Rh11_4  1  0.75000000  0.33693900  0.03059200  1
  Rh  Rh11_5  1  0.75000000  0.33693900  0.53059200  1
  Rh  Rh11_6  1  0.75000000  0.83693900  0.03059200  1
  Rh  Rh11_7  1  0.75000000  0.83693900  0.53059200  1
  Rh  Rh12_0  1  0.25000000  0.18839600  0.20867700  1
  Rh  Rh12_1  1  0.25000000  0.18839600  0.70867700  1
  Rh  Rh12_2  1  0.25000000  0.68839600  0.20867700  1
  Rh  Rh12_3  1  0.25000000  0.68839600  0.70867700  1
  Rh  Rh12_4  1  0.75000000  0.18839600  0.20867700  1
  Rh  Rh12_5  1  0.75000000  0.18839600  0.70867700  1
  Rh  Rh12_6  1  0.75000000  0.68839600  0.20867700  1
  Rh  Rh12_7  1  0.75000000  0.68839600  0.70867700  1
  Rh  Rh13_0  1  0.25000000  0.31160400  0.29132300  1
  Rh  Rh13_1  1  0.25000000  0.31160400  0.79132300  1
  Rh  Rh13_2  1  0.25000000  0.81160400  0.29132300  1
  Rh  Rh13_3  1  0.25000000  0.81160400  0.79132300  1
  Rh  Rh13_4  1  0.75000000  0.31160400  0.29132300  1
  Rh  Rh13_5  1  0.75000000  0.31160400  0.79132300  1
  Rh  Rh13_6  1  0.75000000  0.81160400  0.29132300  1
  Rh  Rh13_7  1  0.75000000  0.81160400  0.79132300  1
  Rh  Rh14_0  1  0.25000000  0.06160400  0.45867700  1
  Rh  Rh14_1  1  0.25000000  0.06160400  0.95867700  1
  Rh  Rh14_2  1  0.25000000  0.56160400  0.45867700  1
  Rh  Rh14_3  1  0.25000000  0.56160400  0.95867700  1
  Rh  Rh14_4  1  0.75000000  0.06160400  0.45867700  1
  Rh  Rh14_5  1  0.75000000  0.06160400  0.95867700  1
  Rh  Rh14_6  1  0.75000000  0.56160400  0.45867700  1
  Rh  Rh14_7  1  0.75000000  0.56160400  0.95867700  1
  Rh  Rh15_0  1  0.25000000  0.43839600  0.04132300  1
  Rh  Rh15_1  1  0.25000000  0.43839600  0.54132300  1
  Rh  Rh15_2  1  0.25000000  0.93839600  0.04132300  1
  Rh  Rh15_3  1  0.25000000  0.93839600  0.54132300  1
  Rh  Rh15_4  1  0.75000000  0.43839600  0.04132300  1
  Rh  Rh15_5  1  0.75000000  0.43839600  0.54132300  1
  Rh  Rh15_6  1  0.75000000  0.93839600  0.04132300  1
  Rh  Rh15_7  1  0.75000000  0.93839600  0.54132300  1
  Rh  Rh16_0  1  0.25000000  0.08541500  0.01052700  1
  Rh  Rh16_1  1  0.25000000  0.08541500  0.51052700  1
  Rh  Rh16_2  1  0.25000000  0.58541500  0.01052700  1
  Rh  Rh16_3  1  0.25000000  0.58541500  0.51052700  1
  Rh  Rh16_4  1  0.75000000  0.08541500  0.01052700  1
  Rh  Rh16_5  1  0.75000000  0.08541500  0.51052700  1
  Rh  Rh16_6  1  0.75000000  0.58541500  0.01052700  1
  Rh  Rh16_7  1  0.75000000  0.58541500  0.51052700  1
  Rh  Rh17_0  1  0.25000000  0.41458500  0.48947300  1
  Rh  Rh17_1  1  0.25000000  0.41458500  0.98947300  1
  Rh  Rh17_2  1  0.25000000  0.91458500  0.48947300  1
  Rh  Rh17_3  1  0.25000000  0.91458500  0.98947300  1
  Rh  Rh17_4  1  0.75000000  0.41458500  0.48947300  1
  Rh  Rh17_5  1  0.75000000  0.41458500  0.98947300  1
  Rh  Rh17_6  1  0.75000000  0.91458500  0.48947300  1
  Rh  Rh17_7  1  0.75000000  0.91458500  0.98947300  1
  Rh  Rh18_0  1  0.25000000  0.16458500  0.26052700  1
  Rh  Rh18_1  1  0.25000000  0.16458500  0.76052700  1
  Rh  Rh18_2  1  0.25000000  0.66458500  0.26052700  1
  Rh  Rh18_3  1  0.25000000  0.66458500  0.76052700  1
  Rh  Rh18_4  1  0.75000000  0.16458500  0.26052700  1
  Rh  Rh18_5  1  0.75000000  0.16458500  0.76052700  1
  Rh  Rh18_6  1  0.75000000  0.66458500  0.26052700  1
  Rh  Rh18_7  1  0.75000000  0.66458500  0.76052700  1
  Rh  Rh19_0  1  0.25000000  0.33541500  0.23947300  1
  Rh  Rh19_1  1  0.25000000  0.33541500  0.73947300  1
  Rh  Rh19_2  1  0.25000000  0.83541500  0.23947300  1
  Rh  Rh19_3  1  0.25000000  0.83541500  0.73947300  1
  Rh  Rh19_4  1  0.75000000  0.33541500  0.23947300  1
  Rh  Rh19_5  1  0.75000000  0.33541500  0.73947300  1
  Rh  Rh19_6  1  0.75000000  0.83541500  0.23947300  1
  Rh  Rh19_7  1  0.75000000  0.83541500  0.73947300  1
  Rh  Rh20_0  1  0.25000000  0.23809100  0.05146450  1
  Rh  Rh20_1  1  0.25000000  0.23809100  0.55146450  1
  Rh  Rh20_2  1  0.25000000  0.73809100  0.05146450  1
  Rh  Rh20_3  1  0.25000000  0.73809100  0.55146450  1
  Rh  Rh20_4  1  0.75000000  0.23809100  0.05146450  1
  Rh  Rh20_5  1  0.75000000  0.23809100  0.55146450  1
  Rh  Rh20_6  1  0.75000000  0.73809100  0.05146450  1
  Rh  Rh20_7  1  0.75000000  0.73809100  0.55146450  1
  Rh  Rh21_0  1  0.25000000  0.26190900  0.44853550  1
  Rh  Rh21_1  1  0.25000000  0.26190900  0.94853550  1
  Rh  Rh21_2  1  0.25000000  0.76190900  0.44853550  1
  Rh  Rh21_3  1  0.25000000  0.76190900  0.94853550  1
  Rh  Rh21_4  1  0.75000000  0.26190900  0.44853550  1
  Rh  Rh21_5  1  0.75000000  0.26190900  0.94853550  1
  Rh  Rh21_6  1  0.75000000  0.76190900  0.44853550  1
  Rh  Rh21_7  1  0.75000000  0.76190900  0.94853550  1
  Rh  Rh22_0  1  0.25000000  0.01190900  0.30146450  1
  Rh  Rh22_1  1  0.25000000  0.01190900  0.80146450  1
  Rh  Rh22_2  1  0.25000000  0.51190900  0.30146450  1
  Rh  Rh22_3  1  0.25000000  0.51190900  0.80146450  1
  Rh  Rh22_4  1  0.75000000  0.01190900  0.30146450  1
  Rh  Rh22_5  1  0.75000000  0.01190900  0.80146450  1
  Rh  Rh22_6  1  0.75000000  0.51190900  0.30146450  1
  Rh  Rh22_7  1  0.75000000  0.51190900  0.80146450  1
  Rh  Rh23_0  1  0.25000000  0.48809100  0.19853550  1
  Rh  Rh23_1  1  0.25000000  0.48809100  0.69853550  1
  Rh  Rh23_2  1  0.25000000  0.98809100  0.19853550  1
  Rh  Rh23_3  1  0.25000000  0.98809100  0.69853550  1
  Rh  Rh23_4  1  0.75000000  0.48809100  0.19853550  1
  Rh  Rh23_5  1  0.75000000  0.48809100  0.69853550  1
  Rh  Rh23_6  1  0.75000000  0.98809100  0.19853550  1
  Rh  Rh23_7  1  0.75000000  0.98809100  0.69853550  1
  Rh  Rh24_0  1  0.25000000  0.00000000  0.25000000  1
  Rh  Rh24_1  1  0.25000000  0.00000000  0.75000000  1
  Rh  Rh24_2  1  0.25000000  0.50000000  0.25000000  1
  Rh  Rh24_3  1  0.25000000  0.50000000  0.75000000  1
  Rh  Rh24_4  1  0.75000000  0.00000000  0.25000000  1
  Rh  Rh24_5  1  0.75000000  0.00000000  0.75000000  1
  Rh  Rh24_6  1  0.75000000  0.50000000  0.25000000  1
  Rh  Rh24_7  1  0.75000000  0.50000000  0.75000000  1
  Rh  Rh25_0  1  0.25000000  0.25000000  0.00000000  1
  Rh  Rh25_1  1  0.25000000  0.25000000  0.50000000  1
  Rh  Rh25_2  1  0.25000000  0.75000000  0.00000000  1
  Rh  Rh25_3  1  0.25000000  0.75000000  0.50000000  1
  Rh  Rh25_4  1  0.75000000  0.25000000  0.00000000  1
  Rh  Rh25_5  1  0.75000000  0.25000000  0.50000000  1
  Rh  Rh25_6  1  0.75000000  0.75000000  0.00000000  1
  Rh  Rh25_7  1  0.75000000  0.75000000  0.50000000  1
  Rh  Rh26_0  1  0.25000000  0.10429350  0.13595700  1
  Rh  Rh26_1  1  0.25000000  0.10429350  0.63595700  1
  Rh  Rh26_2  1  0.25000000  0.60429350  0.13595700  1
  Rh  Rh26_3  1  0.25000000  0.60429350  0.63595700  1
  Rh  Rh26_4  1  0.75000000  0.10429350  0.13595700  1
  Rh  Rh26_5  1  0.75000000  0.10429350  0.63595700  1
  Rh  Rh26_6  1  0.75000000  0.60429350  0.13595700  1
  Rh  Rh26_7  1  0.75000000  0.60429350  0.63595700  1
  Rh  Rh27_0  1  0.25000000  0.39570650  0.36404300  1
  Rh  Rh27_1  1  0.25000000  0.39570650  0.86404300  1
  Rh  Rh27_2  1  0.25000000  0.89570650  0.36404300  1
  Rh  Rh27_3  1  0.25000000  0.89570650  0.86404300  1
  Rh  Rh27_4  1  0.75000000  0.39570650  0.36404300  1
  Rh  Rh27_5  1  0.75000000  0.39570650  0.86404300  1
  Rh  Rh27_6  1  0.75000000  0.89570650  0.36404300  1
  Rh  Rh27_7  1  0.75000000  0.89570650  0.86404300  1
  Rh  Rh28_0  1  0.25000000  0.14570650  0.38595700  1
  Rh  Rh28_1  1  0.25000000  0.14570650  0.88595700  1
  Rh  Rh28_2  1  0.25000000  0.64570650  0.38595700  1
  Rh  Rh28_3  1  0.25000000  0.64570650  0.88595700  1
  Rh  Rh28_4  1  0.75000000  0.14570650  0.38595700  1
  Rh  Rh28_5  1  0.75000000  0.14570650  0.88595700  1
  Rh  Rh28_6  1  0.75000000  0.64570650  0.38595700  1
  Rh  Rh28_7  1  0.75000000  0.64570650  0.88595700  1
  Rh  Rh29_0  1  0.25000000  0.35429350  0.11404300  1
  Rh  Rh29_1  1  0.25000000  0.35429350  0.61404300  1
  Rh  Rh29_2  1  0.25000000  0.85429350  0.11404300  1
  Rh  Rh29_3  1  0.25000000  0.85429350  0.61404300  1
  Rh  Rh29_4  1  0.75000000  0.35429350  0.11404300  1
  Rh  Rh29_5  1  0.75000000  0.35429350  0.61404300  1
  Rh  Rh29_6  1  0.75000000  0.85429350  0.11404300  1
  Rh  Rh29_7  1  0.75000000  0.85429350  0.61404300  1
  Rh  Rh30_0  1  0.25000000  0.20086050  0.15647600  1
  Rh  Rh30_1  1  0.25000000  0.20086050  0.65647600  1
  Rh  Rh30_2  1  0.25000000  0.70086050  0.15647600  1
  Rh  Rh30_3  1  0.25000000  0.70086050  0.65647600  1
  Rh  Rh30_4  1  0.75000000  0.20086050  0.15647600  1
  Rh  Rh30_5  1  0.75000000  0.20086050  0.65647600  1
  Rh  Rh30_6  1  0.75000000  0.70086050  0.15647600  1
  Rh  Rh30_7  1  0.75000000  0.70086050  0.65647600  1
  Rh  Rh31_0  1  0.25000000  0.29913950  0.34352400  1
  Rh  Rh31_1  1  0.25000000  0.29913950  0.84352400  1
  Rh  Rh31_2  1  0.25000000  0.79913950  0.34352400  1
  Rh  Rh31_3  1  0.25000000  0.79913950  0.84352400  1
  Rh  Rh31_4  1  0.75000000  0.29913950  0.34352400  1
  Rh  Rh31_5  1  0.75000000  0.29913950  0.84352400  1
  Rh  Rh31_6  1  0.75000000  0.79913950  0.34352400  1
  Rh  Rh31_7  1  0.75000000  0.79913950  0.84352400  1
  Rh  Rh32_0  1  0.25000000  0.04913950  0.40647600  1
  Rh  Rh32_1  1  0.25000000  0.04913950  0.90647600  1
  Rh  Rh32_2  1  0.25000000  0.54913950  0.40647600  1
  Rh  Rh32_3  1  0.25000000  0.54913950  0.90647600  1
  Rh  Rh32_4  1  0.75000000  0.04913950  0.40647600  1
  Rh  Rh32_5  1  0.75000000  0.04913950  0.90647600  1
  Rh  Rh32_6  1  0.75000000  0.54913950  0.40647600  1
  Rh  Rh32_7  1  0.75000000  0.54913950  0.90647600  1
  Rh  Rh33_0  1  0.25000000  0.45086050  0.09352400  1
  Rh  Rh33_1  1  0.25000000  0.45086050  0.59352400  1
  Rh  Rh33_2  1  0.25000000  0.95086050  0.09352400  1
  Rh  Rh33_3  1  0.25000000  0.95086050  0.59352400  1
  Rh  Rh33_4  1  0.75000000  0.45086050  0.09352400  1
  Rh  Rh33_5  1  0.75000000  0.45086050  0.59352400  1
  Rh  Rh33_6  1  0.75000000  0.95086050  0.09352400  1
  Rh  Rh33_7  1  0.75000000  0.95086050  0.59352400  1
  Rh  Rh34_0  1  0.25000000  0.19507400  0.10261400  1
  Rh  Rh34_1  1  0.25000000  0.19507400  0.60261400  1
  Rh  Rh34_2  1  0.25000000  0.69507400  0.10261400  1
  Rh  Rh34_3  1  0.25000000  0.69507400  0.60261400  1
  Rh  Rh34_4  1  0.75000000  0.19507400  0.10261400  1
  Rh  Rh34_5  1  0.75000000  0.19507400  0.60261400  1
  Rh  Rh34_6  1  0.75000000  0.69507400  0.10261400  1
  Rh  Rh34_7  1  0.75000000  0.69507400  0.60261400  1
  Rh  Rh35_0  1  0.25000000  0.30492600  0.39738600  1
  Rh  Rh35_1  1  0.25000000  0.30492600  0.89738600  1
  Rh  Rh35_2  1  0.25000000  0.80492600  0.39738600  1
  Rh  Rh35_3  1  0.25000000  0.80492600  0.89738600  1
  Rh  Rh35_4  1  0.75000000  0.30492600  0.39738600  1
  Rh  Rh35_5  1  0.75000000  0.30492600  0.89738600  1
  Rh  Rh35_6  1  0.75000000  0.80492600  0.39738600  1
  Rh  Rh35_7  1  0.75000000  0.80492600  0.89738600  1
  Rh  Rh36_0  1  0.25000000  0.05492600  0.35261400  1
  Rh  Rh36_1  1  0.25000000  0.05492600  0.85261400  1
  Rh  Rh36_2  1  0.25000000  0.55492600  0.35261400  1
  Rh  Rh36_3  1  0.25000000  0.55492600  0.85261400  1
  Rh  Rh36_4  1  0.75000000  0.05492600  0.35261400  1
  Rh  Rh36_5  1  0.75000000  0.05492600  0.85261400  1
  Rh  Rh36_6  1  0.75000000  0.55492600  0.35261400  1
  Rh  Rh36_7  1  0.75000000  0.55492600  0.85261400  1
  Rh  Rh37_0  1  0.25000000  0.44507400  0.14738600  1
  Rh  Rh37_1  1  0.25000000  0.44507400  0.64738600  1
  Rh  Rh37_2  1  0.25000000  0.94507400  0.14738600  1
  Rh  Rh37_3  1  0.25000000  0.94507400  0.64738600  1
  Rh  Rh37_4  1  0.75000000  0.44507400  0.14738600  1
  Rh  Rh37_5  1  0.75000000  0.44507400  0.64738600  1
  Rh  Rh37_6  1  0.75000000  0.94507400  0.14738600  1
  Rh  Rh37_7  1  0.75000000  0.94507400  0.64738600  1
loop_
_geom_bond_atom_site_label_1
_geom_bond_atom_site_label_2
_geom_bond_distance
_geom_bond_site_symmetry_2
Li0_0 Li1_3 2.389626 1_544
Li0_0 Rh15_6 2.575119 1_445
Li0_0 Rh15_2 2.575119 1_545
Li0_0 Rh4_4 2.711052 1_455
Li0_0 Rh4_0 2.711052 1_555
Li0_0 Rh16_4 2.719443 1_455
Li0_0 Rh16_0 2.719443 1_555
Li0_1 Li1_2 2.389626 1_545
Li0_1 Rh15_7 2.575119 1_445
Li0_1 Rh15_3 2.575119 1_545
Li0_1 Rh4_5 2.711052 1_455
Li0_1 Rh4_1 2.711052 1_555
Li0_1 Rh16_5 2.719443 1_455
Li0_1 Rh16_1 2.719443 1_555
Li0_2 Li1_1 2.389626 1_554
Li0_2 Rh15_4 2.575119 1_455
Li0_2 Rh15_0 2.575119 1_555
Li0_2 Rh4_6 2.711052 1_455
Li0_2 Rh4_2 2.711052 1_555
Li0_2 Rh16_6 2.719443 1_455
Li0_2 Rh16_2 2.719443 1_555
Li0_3 Li1_0 2.389626 1_555
Li0_3 Rh15_5 2.575119 1_455
Li0_3 Rh15_1 2.575119 1_555
Li0_3 Rh4_7 2.711052 1_455
Li0_3 Rh4_3 2.711052 1_555
Li0_3 Rh16_7 2.719443 1_455
Li0_3 Rh16_3 2.719443 1_555
Li0_4 Li1_7 2.389626 1_544
Li0_4 Rh15_6 2.575119 1_545
Li0_4 Rh15_2 2.575119 1_545
Li0_4 Rh4_0 2.711052 1_555
Li0_4 Rh4_4 2.711052 1_555
Li0_4 Rh16_0 2.719443 1_555
Li0_4 Rh16_4 2.719443 1_555
Li0_5 Li1_6 2.389626 1_545
Li0_5 Rh15_3 2.575119 1_545
Li0_5 Rh15_7 2.575119 1_545
Li0_5 Rh4_1 2.711052 1_555
Li0_5 Rh4_5 2.711052 1_555
Li0_5 Rh16_1 2.719443 1_555
Li0_5 Rh16_5 2.719443 1_555
Li0_6 Li1_5 2.389626 1_554
Li0_6 Rh15_0 2.575119 1_555
Li0_6 Rh15_4 2.575119 1_555
Li0_6 Rh4_2 2.711052 1_555
Li0_6 Rh4_6 2.711052 1_555
Li0_6 Rh16_2 2.719443 1_555
Li0_6 Rh16_6 2.719443 1_555
Li0_7 Li1_4 2.389626 1_555
Li0_7 Rh15_1 2.575119 1_555
Li0_7 Rh15_5 2.575119 1_555
Li0_7 Rh4_3 2.711052 1_555
Li0_7 Rh4_7 2.711052 1_555
Li0_7 Rh16_3 2.719443 1_555
Li0_7 Rh16_7 2.719443 1_555
Li1_0 Rh14_6 2.575119 1_455
Li1_0 Rh14_2 2.575119 1_555
Li1_0 Rh5_0 2.711052 1_555
Li1_0 Rh5_4 2.711052 1_455
Li1_0 Rh17_4 2.719443 1_455
Li1_0 Rh17_0 2.719443 1_555
Li1_1 Rh14_7 2.575119 1_455
Li1_1 Rh14_3 2.575119 1_555
Li1_1 Rh5_5 2.711052 1_455
Li1_1 Rh5_1 2.711052 1_555
Li1_1 Rh17_5 2.719443 1_455
Li1_1 Rh17_1 2.719443 1_555
Li1_2 Rh14_4 2.575119 1_465
Li1_2 Rh14_0 2.575119 1_565
Li1_2 Rh5_6 2.711052 1_455
Li1_2 Rh5_2 2.711052 1_555
Li1_2 Rh17_6 2.719443 1_455
Li1_2 Rh17_2 2.719443 1_555
Li1_3 Rh14_5 2.575119 1_465
Li1_3 Rh14_1 2.575119 1_565
Li1_3 Rh5_7 2.711052 1_455
Li1_3 Rh5_3 2.711052 1_555
Li1_3 Rh17_7 2.719443 1_455
Li1_3 Rh17_3 2.719443 1_555
Li1_4 Rh14_6 2.575119 1_555
Li1_4 Rh14_2 2.575119 1_555
Li1_4 Rh5_0 2.711052 1_555
Li1_4 Rh5_4 2.711052 1_555
Li1_4 Rh17_0 2.719443 1_555
Li1_4 Rh17_4 2.719443 1_555
Li1_5 Rh14_3 2.575119 1_555
Li1_5 Rh14_7 2.575119 1_555
Li1_5 Rh5_1 2.711052 1_555
Li1_5 Rh5_5 2.711052 1_555
Li1_5 Rh17_1 2.719443 1_555
Li1_5 Rh17_5 2.719443 1_555
Li1_6 Rh14_0 2.575119 1_565
Li1_6 Rh14_4 2.575119 1_565
Li1_6 Rh5_2 2.711052 1_555
Li1_6 Rh5_6 2.711052 1_555
Li1_6 Rh17_6 2.719443 1_555
Li1_6 Rh17_2 2.719443 1_555
Li1_7 Rh14_1 2.575119 1_565
Li1_7 Rh14_5 2.575119 1_565
Li1_7 Rh5_3 2.711052 1_555
Li1_7 Rh5_7 2.711052 1_555
Li1_7 Rh17_3 2.719443 1_555
Li1_7 Rh17_7 2.719443 1_555
Li2_0 Li3_0 2.389626 1_555
Li2_0 Rh13_4 2.575119 1_455
Li2_0 Rh13_0 2.575119 1_555
Li2_0 Rh6_4 2.711052 1_455
Li2_0 Rh6_0 2.711052 1_555
Li2_0 Rh18_4 2.719443 1_455
Li2_0 Rh18_0 2.719443 1_555
Li2_1 Li3_1 2.389626 1_555
Li2_1 Rh13_5 2.575119 1_455
Li2_1 Rh13_1 2.575119 1_555
Li2_1 Rh6_1 2.711052 1_555
Li2_1 Rh6_5 2.711052 1_455
Li2_1 Rh18_5 2.719443 1_455
Li2_1 Rh18_1 2.719443 1_555
Li2_2 Li3_2 2.389626 1_555
Li2_2 Rh13_2 2.575119 1_555
Li2_2 Rh13_6 2.575119 1_455
Li2_2 Rh6_6 2.711052 1_455
Li2_2 Rh6_2 2.711052 1_555
Li2_2 Rh18_2 2.719443 1_555
Li2_2 Rh18_6 2.719443 1_455
Li2_3 Li3_3 2.389626 1_555
Li2_3 Rh13_3 2.575119 1_555
Li2_3 Rh13_7 2.575119 1_455
Li2_3 Rh6_7 2.711052 1_455
Li2_3 Rh6_3 2.711052 1_555
Li2_3 Rh18_7 2.719443 1_455
Li2_3 Rh18_3 2.719443 1_555
Li2_4 Li3_4 2.389626 1_555
Li2_4 Rh13_0 2.575119 1_555
Li2_4 Rh13_4 2.575119 1_555
Li2_4 Rh6_0 2.711052 1_555
Li2_4 Rh6_4 2.711052 1_555
Li2_4 Rh18_0 2.719443 1_555
Li2_4 Rh18_4 2.719443 1_555
Li2_5 Li3_5 2.389626 1_555
Li2_5 Rh13_1 2.575119 1_555
Li2_5 Rh13_5 2.575119 1_555
Li2_5 Rh6_1 2.711052 1_555
Li2_5 Rh6_5 2.711052 1_555
Li2_5 Rh18_5 2.719443 1_555
Li2_5 Rh18_1 2.719443 1_555
Li2_6 Li3_6 2.389626 1_555
Li2_6 Rh13_2 2.575119 1_555
Li2_6 Rh13_6 2.575119 1_555
Li2_6 Rh6_2 2.711052 1_555
Li2_6 Rh6_6 2.711052 1_555
Li2_6 Rh18_2 2.719443 1_555
Li2_6 Rh18_6 2.719443 1_555
Li2_7 Li3_7 2.389626 1_555
Li2_7 Rh13_3 2.575119 1_555
Li2_7 Rh13_7 2.575119 1_555
Li2_7 Rh6_3 2.711052 1_555
Li2_7 Rh6_7 2.711052 1_555
Li2_7 Rh18_3 2.719443 1_555
Li2_7 Rh18_7 2.719443 1_555
Li3_0 Rh12_0 2.575119 1_555
Li3_0 Rh12_4 2.575119 1_455
Li3_0 Rh7_4 2.711052 1_455
Li3_0 Rh7_0 2.711052 1_555
Li3_0 Rh19_4 2.719443 1_455
Li3_0 Rh19_0 2.719443 1_555
Li3_1 Rh12_5 2.575119 1_455
Li3_1 Rh12_1 2.575119 1_555
Li3_1 Rh7_5 2.711052 1_455
Li3_1 Rh7_1 2.711052 1_555
Li3_1 Rh19_5 2.719443 1_455
Li3_1 Rh19_1 2.719443 1_555
Li3_2 Rh12_2 2.575119 1_555
Li3_2 Rh12_6 2.575119 1_455
Li3_2 Rh7_6 2.711052 1_455
Li3_2 Rh7_2 2.711052 1_555
Li3_2 Rh19_6 2.719443 1_455
Li3_2 Rh19_2 2.719443 1_555
Li3_3 Rh12_7 2.575119 1_455
Li3_3 Rh12_3 2.575119 1_555
Li3_3 Rh7_7 2.711052 1_455
Li3_3 Rh7_3 2.711052 1_555
Li3_3 Rh19_7 2.719443 1_455
Li3_3 Rh19_3 2.719443 1_555
Li3_4 Rh12_0 2.575119 1_555
Li3_4 Rh12_4 2.575119 1_555
Li3_4 Rh7_0 2.711052 1_555
Li3_4 Rh7_4 2.711052 1_555
Li3_4 Rh19_0 2.719443 1_555
Li3_4 Rh19_4 2.719443 1_555
Li3_5 Rh12_1 2.575119 1_555
Li3_5 Rh12_5 2.575119 1_555
Li3_5 Rh7_1 2.711052 1_555
Li3_5 Rh7_5 2.711052 1_555
Li3_5 Rh19_1 2.719443 1_555
Li3_5 Rh19_5 2.719443 1_555
Li3_6 Rh12_2 2.575119 1_555
Li3_6 Rh12_6 2.575119 1_555
Li3_6 Rh7_2 2.711052 1_555
Li3_6 Rh7_6 2.711052 1_555
Li3_6 Rh19_2 2.719443 1_555
Li3_6 Rh19_6 2.719443 1_555
Li3_7 Rh12_7 2.575119 1_555
Li3_7 Rh12_3 2.575119 1_555
Li3_7 Rh7_3 2.711052 1_555
Li3_7 Rh7_7 2.711052 1_555
Li3_7 Rh19_3 2.719443 1_555
Li3_7 Rh19_7 2.719443 1_555
Mg0_0 Rh33_6 2.618062 1_445
Mg0_0 Rh33_2 2.618062 1_545
Mg0_0 Mg16_0 2.723009 1_555
Mg0_0 Mg8_0 2.724982 1_555
Mg0_0 Rh26_4 3.020066 1_455
Mg0_0 Rh26_0 3.020066 1_555
Mg0_1 Rh33_3 2.618062 1_545
Mg0_1 Rh33_7 2.618062 1_445
Mg0_1 Mg16_1 2.723009 1_555
Mg0_1 Mg8_1 2.724982 1_555
Mg0_1 Rh26_5 3.020066 1_455
Mg0_1 Rh26_1 3.020066 1_555
Mg0_2 Rh33_4 2.618062 1_455
Mg0_2 Rh33_0 2.618062 1_555
Mg0_2 Mg16_2 2.723009 1_555
Mg0_2 Mg8_2 2.724982 1_555
Mg0_2 Rh26_2 3.020066 1_555
Mg0_2 Rh26_6 3.020066 1_455
Mg0_3 Rh33_5 2.618062 1_455
Mg0_3 Rh33_1 2.618062 1_555
Mg0_3 Mg16_3 2.723009 1_555
Mg0_3 Mg8_3 2.724982 1_555
Mg0_3 Rh26_7 3.020066 1_455
Mg0_3 Rh26_3 3.020066 1_555
Mg0_4 Rh33_2 2.618062 1_545
Mg0_4 Rh33_6 2.618062 1_545
Mg0_4 Mg16_4 2.723009 1_555
Mg0_4 Mg8_4 2.724982 1_555
Mg0_4 Rh26_0 3.020066 1_555
Mg0_4 Rh26_4 3.020066 1_555
Mg0_5 Rh33_3 2.618062 1_545
Mg0_5 Rh33_7 2.618062 1_545
Mg0_5 Mg16_5 2.723009 1_555
Mg0_5 Mg8_5 2.724982 1_555
Mg0_5 Rh26_1 3.020066 1_555
Mg0_5 Rh26_5 3.020066 1_555
Mg0_6 Rh33_0 2.618062 1_555
Mg0_6 Rh33_4 2.618062 1_555
Mg0_6 Mg16_6 2.723009 1_555
Mg0_6 Mg8_6 2.724982 1_555
Mg0_6 Rh26_2 3.020066 1_555
Mg0_6 Rh26_6 3.020066 1_555
Mg0_7 Rh33_5 2.618062 1_555
Mg0_7 Rh33_1 2.618062 1_555
Mg0_7 Mg16_7 2.723009 1_555
Mg0_7 Mg8_7 2.724982 1_555
Mg0_7 Rh26_3 3.020066 1_555
Mg0_7 Rh26_7 3.020066 1_555
Mg1_0 Rh32_6 2.618062 1_455
Mg1_0 Rh32_2 2.618062 1_555
Mg1_0 Mg9_0 2.724982 1_555
Mg1_0 Rh27_4 3.020066 1_455
Mg1_0 Rh27_0 3.020066 1_555
Mg1_1 Rh32_7 2.618062 1_455
Mg1_1 Rh32_3 2.618062 1_555
Mg1_1 Mg9_1 2.724982 1_555
Mg1_1 Rh27_5 3.020066 1_455
Mg1_1 Rh27_1 3.020066 1_555
Mg1_2 Rh32_4 2.618062 1_465
Mg1_2 Rh32_0 2.618062 1_565
Mg1_2 Mg9_2 2.724982 1_555
Mg1_2 Rh27_6 3.020066 1_455
Mg1_2 Rh27_2 3.020066 1_555
Mg1_3 Rh32_5 2.618062 1_465
Mg1_3 Rh32_1 2.618062 1_565
Mg1_3 Mg9_3 2.724982 1_555
Mg1_3 Rh27_7 3.020066 1_455
Mg1_3 Rh27_3 3.020066 1_555
Mg1_4 Rh32_2 2.618062 1_555
Mg1_4 Rh32_6 2.618062 1_555
Mg1_4 Mg9_4 2.724982 1_555
Mg1_4 Rh27_0 3.020066 1_555
Mg1_4 Rh27_4 3.020066 1_555
Mg1_5 Rh32_3 2.618062 1_555
Mg1_5 Rh32_7 2.618062 1_555
Mg1_5 Mg9_5 2.724982 1_555
Mg1_5 Rh27_5 3.020066 1_555
Mg1_5 Rh27_1 3.020066 1_555
Mg1_6 Rh32_0 2.618062 1_565
Mg1_6 Rh32_4 2.618062 1_565
Mg1_6 Mg9_6 2.724982 1_555
Mg1_6 Rh27_6 3.020066 1_555
Mg1_6 Rh27_2 3.020066 1_555
Mg1_7 Rh32_1 2.618062 1_565
Mg1_7 Rh32_5 2.618062 1_565
Mg1_7 Mg9_7 2.724982 1_555
Mg1_7 Rh27_3 3.020066 1_555
Mg1_7 Rh27_7 3.020066 1_555
Mg2_0 Rh31_4 2.618062 1_455
Mg2_0 Rh31_0 2.618062 1_555
Mg2_0 Rh28_4 3.020066 1_455
Mg2_0 Rh28_0 3.020066 1_555
Mg2_1 Rh31_5 2.618062 1_455
Mg2_1 Rh31_1 2.618062 1_555
Mg2_1 Rh28_1 3.020066 1_555
Mg2_1 Rh28_5 3.020066 1_455
Mg2_2 Rh31_6 2.618062 1_455
Mg2_2 Rh31_2 2.618062 1_555
Mg2_2 Rh28_2 3.020066 1_555
Mg2_2 Rh28_6 3.020066 1_455
Mg2_3 Rh31_7 2.618062 1_455
Mg2_3 Rh31_3 2.618062 1_555
Mg2_3 Rh28_7 3.020066 1_455
Mg2_3 Rh28_3 3.020066 1_555
Mg2_4 Rh31_0 2.618062 1_555
Mg2_4 Rh31_4 2.618062 1_555
Mg2_4 Rh28_0 3.020066 1_555
Mg2_4 Rh28_4 3.020066 1_555
Mg2_5 Rh31_1 2.618062 1_555
Mg2_5 Rh31_5 2.618062 1_555
Mg2_5 Rh28_1 3.020066 1_555
Mg2_5 Rh28_5 3.020066 1_555
Mg2_6 Rh31_2 2.618062 1_555
Mg2_6 Rh31_6 2.618062 1_555
Mg2_6 Rh28_2 3.020066 1_555
Mg2_6 Rh28_6 3.020066 1_555
Mg2_7 Rh31_3 2.618062 1_555
Mg2_7 Rh31_7 2.618062 1_555
Mg2_7 Rh28_3 3.020066 1_555
Mg2_7 Rh28_7 3.020066 1_555
Mg3_0 Rh30_4 2.618062 1_455
Mg3_0 Rh30_0 2.618062 1_555
Mg3_0 Rh29_4 3.020066 1_455
Mg3_0 Rh29_0 3.020066 1_555
Mg3_1 Rh30_5 2.618062 1_455
Mg3_1 Rh30_1 2.618062 1_555
Mg3_1 Rh29_5 3.020066 1_455
Mg3_1 Rh29_1 3.020066 1_555
Mg3_2 Rh30_6 2.618062 1_455
Mg3_2 Rh30_2 2.618062 1_555
Mg3_2 Rh29_2 3.020066 1_555
Mg3_2 Rh29_6 3.020066 1_455
Mg3_3 Rh30_7 2.618062 1_455
Mg3_3 Rh30_3 2.618062 1_555
Mg3_3 Rh29_3 3.020066 1_555
Mg3_3 Rh29_7 3.020066 1_455
Mg3_4 Rh30_0 2.618062 1_555
Mg3_4 Rh30_4 2.618062 1_555
Mg3_4 Rh29_0 3.020066 1_555
Mg3_4 Rh29_4 3.020066 1_555
Mg3_5 Rh30_1 2.618062 1_555
Mg3_5 Rh30_5 2.618062 1_555
Mg3_5 Rh29_1 3.020066 1_555
Mg3_5 Rh29_5 3.020066 1_555
Mg3_6 Rh30_2 2.618062 1_555
Mg3_6 Rh30_6 2.618062 1_555
Mg3_6 Rh29_2 3.020066 1_555
Mg3_6 Rh29_6 3.020066 1_555
Mg3_7 Rh30_3 2.618062 1_555
Mg3_7 Rh30_7 2.618062 1_555
Mg3_7 Rh29_3 3.020066 1_555
Mg3_7 Rh29_7 3.020066 1_555
Mg4_0 Rh0_4 2.719340 1_455
Mg4_0 Rh0_0 2.719340 1_555
Mg4_0 Rh25_4 2.727921 1_455
Mg4_0 Rh25_0 2.727921 1_555
Mg4_0 Rh16_0 2.849537 1_555
Mg4_0 Rh16_4 2.849537 1_455
Mg4_0 Rh10_5 2.902188 1_454
Mg4_0 Rh10_1 2.902188 1_554
Mg4_0 Rh20_4 2.979910 1_455
Mg4_0 Rh20_0 2.979910 1_555
Mg4_1 Rh0_5 2.719340 1_455
Mg4_1 Rh0_1 2.719340 1_555
Mg4_1 Rh25_5 2.727921 1_455
Mg4_1 Rh25_1 2.727921 1_555
Mg4_1 Rh16_5 2.849537 1_455
Mg4_1 Rh16_1 2.849537 1_555
Mg4_1 Rh10_4 2.902188 1_455
Mg4_1 Rh10_0 2.902188 1_555
Mg4_1 Rh20_5 2.979910 1_455
Mg4_1 Rh20_1 2.979910 1_555
Mg4_2 Rh0_6 2.719340 1_455
Mg4_2 Rh0_2 2.719340 1_555
Mg4_2 Rh25_2 2.727921 1_555
Mg4_2 Rh25_6 2.727921 1_455
Mg4_2 Rh16_6 2.849537 1_455
Mg4_2 Rh16_2 2.849537 1_555
Mg4_2 Rh10_7 2.902188 1_454
Mg4_2 Rh10_3 2.902188 1_554
Mg4_2 Rh20_6 2.979910 1_455
Mg4_2 Rh20_2 2.979910 1_555
Mg4_3 Rh0_7 2.719340 1_455
Mg4_3 Rh0_3 2.719340 1_555
Mg4_3 Rh25_3 2.727921 1_555
Mg4_3 Rh25_7 2.727921 1_455
Mg4_3 Rh16_7 2.849537 1_455
Mg4_3 Rh16_3 2.849537 1_555
Mg4_3 Rh10_6 2.902188 1_455
Mg4_3 Rh10_2 2.902188 1_555
Mg4_3 Rh20_7 2.979910 1_455
Mg4_3 Rh20_3 2.979910 1_555
Mg4_4 Rh0_0 2.719340 1_555
Mg4_4 Rh0_4 2.719340 1_555
Mg4_4 Rh25_0 2.727921 1_555
Mg4_4 Rh25_4 2.727921 1_555
Mg4_4 Rh16_0 2.849537 1_555
Mg4_4 Rh16_4 2.849537 1_555
Mg4_4 Rh10_1 2.902188 1_554
Mg4_4 Rh10_5 2.902188 1_554
Mg4_4 Rh20_0 2.979910 1_555
Mg4_4 Rh20_4 2.979910 1_555
Mg4_5 Rh0_1 2.719340 1_555
Mg4_5 Rh0_5 2.719340 1_555
Mg4_5 Rh25_1 2.727921 1_555
Mg4_5 Rh25_5 2.727921 1_555
Mg4_5 Rh16_1 2.849537 1_555
Mg4_5 Rh16_5 2.849537 1_555
Mg4_5 Rh10_4 2.902188 1_555
Mg4_5 Rh10_0 2.902188 1_555
Mg4_5 Rh20_1 2.979910 1_555
Mg4_5 Rh20_5 2.979910 1_555
Mg4_6 Rh0_2 2.719340 1_555
Mg4_6 Rh0_6 2.719340 1_555
Mg4_6 Rh25_2 2.727921 1_555
Mg4_6 Rh25_6 2.727921 1_555
Mg4_6 Rh16_2 2.849537 1_555
Mg4_6 Rh16_6 2.849537 1_555
Mg4_6 Rh10_7 2.902188 1_554
Mg4_6 Rh10_3 2.902188 1_554
Mg4_6 Rh20_2 2.979910 1_555
Mg4_6 Rh20_6 2.979910 1_555
Mg4_7 Rh0_3 2.719340 1_555
Mg4_7 Rh0_7 2.719340 1_555
Mg4_7 Rh25_3 2.727921 1_555
Mg4_7 Rh25_7 2.727921 1_555
Mg4_7 Rh16_3 2.849537 1_555
Mg4_7 Rh16_7 2.849537 1_555
Mg4_7 Rh10_2 2.902188 1_555
Mg4_7 Rh10_6 2.902188 1_555
Mg4_7 Rh20_3 2.979910 1_555
Mg4_7 Rh20_7 2.979910 1_555
Mg5_0 Rh1_4 2.719340 1_455
Mg5_0 Rh1_0 2.719340 1_555
Mg5_0 Rh25_5 2.727921 1_455
Mg5_0 Rh25_1 2.727921 1_555
Mg5_0 Rh17_4 2.849537 1_455
Mg5_0 Rh17_0 2.849537 1_555
Mg5_0 Rh11_5 2.902188 1_455
Mg5_0 Rh11_1 2.902188 1_555
Mg5_0 Rh21_4 2.979910 1_455
Mg5_0 Rh21_0 2.979910 1_555
Mg5_1 Rh1_5 2.719340 1_455
Mg5_1 Rh1_1 2.719340 1_555
Mg5_1 Rh25_4 2.727921 1_456
Mg5_1 Rh25_0 2.727921 1_556
Mg5_1 Rh17_1 2.849537 1_555
Mg5_1 Rh17_5 2.849537 1_455
Mg5_1 Rh11_0 2.902188 1_556
Mg5_1 Rh11_4 2.902188 1_456
Mg5_1 Rh21_5 2.979910 1_455
Mg5_1 Rh21_1 2.979910 1_555
Mg5_2 Rh1_6 2.719340 1_455
Mg5_2 Rh1_2 2.719340 1_555
Mg5_2 Rh25_7 2.727921 1_455
Mg5_2 Rh25_3 2.727921 1_555
Mg5_2 Rh17_2 2.849537 1_555
Mg5_2 Rh17_6 2.849537 1_455
Mg5_2 Rh11_7 2.902188 1_455
Mg5_2 Rh11_3 2.902188 1_555
Mg5_2 Rh21_6 2.979910 1_455
Mg5_2 Rh21_2 2.979910 1_555
Mg5_3 Rh1_3 2.719340 1_555
Mg5_3 Rh1_7 2.719340 1_455
Mg5_3 Rh25_6 2.727921 1_456
Mg5_3 Rh25_2 2.727921 1_556
Mg5_3 Rh17_7 2.849537 1_455
Mg5_3 Rh17_3 2.849537 1_555
Mg5_3 Rh11_6 2.902188 1_456
Mg5_3 Rh11_2 2.902188 1_556
Mg5_3 Rh21_3 2.979910 1_555
Mg5_3 Rh21_7 2.979910 1_455
Mg5_4 Rh1_0 2.719340 1_555
Mg5_4 Rh1_4 2.719340 1_555
Mg5_4 Rh25_1 2.727921 1_555
Mg5_4 Rh25_5 2.727921 1_555
Mg5_4 Rh17_0 2.849537 1_555
Mg5_4 Rh17_4 2.849537 1_555
Mg5_4 Rh11_1 2.902188 1_555
Mg5_4 Rh11_5 2.902188 1_555
Mg5_4 Rh21_0 2.979910 1_555
Mg5_4 Rh21_4 2.979910 1_555
Mg5_5 Rh1_1 2.719340 1_555
Mg5_5 Rh1_5 2.719340 1_555
Mg5_5 Rh25_0 2.727921 1_556
Mg5_5 Rh25_4 2.727921 1_556
Mg5_5 Rh17_1 2.849537 1_555
Mg5_5 Rh17_5 2.849537 1_555
Mg5_5 Rh11_0 2.902188 1_556
Mg5_5 Rh11_4 2.902188 1_556
Mg5_5 Rh21_1 2.979910 1_555
Mg5_5 Rh21_5 2.979910 1_555
Mg5_6 Rh1_2 2.719340 1_555
Mg5_6 Rh1_6 2.719340 1_555
Mg5_6 Rh25_3 2.727921 1_555
Mg5_6 Rh25_7 2.727921 1_555
Mg5_6 Rh17_2 2.849537 1_555
Mg5_6 Rh17_6 2.849537 1_555
Mg5_6 Rh11_3 2.902188 1_555
Mg5_6 Rh11_7 2.902188 1_555
Mg5_6 Rh21_2 2.979910 1_555
Mg5_6 Rh21_6 2.979910 1_555
Mg5_7 Rh1_3 2.719340 1_555
Mg5_7 Rh1_7 2.719340 1_555
Mg5_7 Rh25_2 2.727921 1_556
Mg5_7 Rh25_6 2.727921 1_556
Mg5_7 Rh17_3 2.849537 1_555
Mg5_7 Rh17_7 2.849537 1_555
Mg5_7 Rh11_2 2.902188 1_556
Mg5_7 Rh11_6 2.902188 1_556
Mg5_7 Rh21_3 2.979910 1_555
Mg5_7 Rh21_7 2.979910 1_555
Mg6_0 Rh2_4 2.719340 1_455
Mg6_0 Rh2_0 2.719340 1_555
Mg6_0 Rh24_0 2.727921 1_555
Mg6_0 Rh24_4 2.727921 1_455
Mg6_0 Rh18_4 2.849537 1_455
Mg6_0 Rh18_0 2.849537 1_555
Mg6_0 Rh8_4 2.902188 1_455
Mg6_0 Rh8_0 2.902188 1_555
Mg6_0 Rh22_4 2.979910 1_455
Mg6_0 Rh22_0 2.979910 1_555
Mg6_1 Rh2_5 2.719340 1_455
Mg6_1 Rh2_1 2.719340 1_555
Mg6_1 Rh24_5 2.727921 1_455
Mg6_1 Rh24_1 2.727921 1_555
Mg6_1 Rh18_1 2.849537 1_555
Mg6_1 Rh18_5 2.849537 1_455
Mg6_1 Rh8_1 2.902188 1_555
Mg6_1 Rh8_5 2.902188 1_455
Mg6_1 Rh22_5 2.979910 1_455
Mg6_1 Rh22_1 2.979910 1_555
Mg6_2 Rh2_6 2.719340 1_455
Mg6_2 Rh2_2 2.719340 1_555
Mg6_2 Rh24_6 2.727921 1_455
Mg6_2 Rh24_2 2.727921 1_555
Mg6_2 Rh18_6 2.849537 1_455
Mg6_2 Rh18_2 2.849537 1_555
Mg6_2 Rh8_6 2.902188 1_455
Mg6_2 Rh8_2 2.902188 1_555
Mg6_2 Rh22_2 2.979910 1_555
Mg6_2 Rh22_6 2.979910 1_455
Mg6_3 Rh2_7 2.719340 1_455
Mg6_3 Rh2_3 2.719340 1_555
Mg6_3 Rh24_7 2.727921 1_455
Mg6_3 Rh24_3 2.727921 1_555
Mg6_3 Rh18_7 2.849537 1_455
Mg6_3 Rh18_3 2.849537 1_555
Mg6_3 Rh8_7 2.902188 1_455
Mg6_3 Rh8_3 2.902188 1_555
Mg6_3 Rh22_3 2.979910 1_555
Mg6_3 Rh22_7 2.979910 1_455
Mg6_4 Rh2_0 2.719340 1_555
Mg6_4 Rh2_4 2.719340 1_555
Mg6_4 Rh24_0 2.727921 1_555
Mg6_4 Rh24_4 2.727921 1_555
Mg6_4 Rh18_0 2.849537 1_555
Mg6_4 Rh18_4 2.849537 1_555
Mg6_4 Rh8_0 2.902188 1_555
Mg6_4 Rh8_4 2.902188 1_555
Mg6_4 Rh22_0 2.979910 1_555
Mg6_4 Rh22_4 2.979910 1_555
Mg6_5 Rh2_1 2.719340 1_555
Mg6_5 Rh2_5 2.719340 1_555
Mg6_5 Rh24_1 2.727921 1_555
Mg6_5 Rh24_5 2.727921 1_555
Mg6_5 Rh18_1 2.849537 1_555
Mg6_5 Rh18_5 2.849537 1_555
Mg6_5 Rh8_1 2.902188 1_555
Mg6_5 Rh8_5 2.902188 1_555
Mg6_5 Rh22_1 2.979910 1_555
Mg6_5 Rh22_5 2.979910 1_555
Mg6_6 Rh2_2 2.719340 1_555
Mg6_6 Rh2_6 2.719340 1_555
Mg6_6 Rh24_2 2.727921 1_555
Mg6_6 Rh24_6 2.727921 1_555
Mg6_6 Rh18_2 2.849537 1_555
Mg6_6 Rh18_6 2.849537 1_555
Mg6_6 Rh8_2 2.902188 1_555
Mg6_6 Rh8_6 2.902188 1_555
Mg6_6 Rh22_2 2.979910 1_555
Mg6_6 Rh22_6 2.979910 1_555
Mg6_7 Rh2_3 2.719340 1_555
Mg6_7 Rh2_7 2.719340 1_555
Mg6_7 Rh24_7 2.727921 1_555
Mg6_7 Rh24_3 2.727921 1_555
Mg6_7 Rh18_3 2.849537 1_555
Mg6_7 Rh18_7 2.849537 1_555
Mg6_7 Rh8_3 2.902188 1_555
Mg6_7 Rh8_7 2.902188 1_555
Mg6_7 Rh22_3 2.979910 1_555
Mg6_7 Rh22_7 2.979910 1_555
Mg7_0 Rh3_4 2.719340 1_455
Mg7_0 Rh3_0 2.719340 1_555
Mg7_0 Rh24_6 2.727921 1_455
Mg7_0 Rh24_2 2.727921 1_555
Mg7_0 Rh19_4 2.849537 1_455
Mg7_0 Rh19_0 2.849537 1_555
Mg7_0 Rh9_4 2.902188 1_455
Mg7_0 Rh9_0 2.902188 1_555
Mg7_0 Rh23_4 2.979910 1_455
Mg7_0 Rh23_0 2.979910 1_555
Mg7_1 Rh3_5 2.719340 1_455
Mg7_1 Rh3_1 2.719340 1_555
Mg7_1 Rh24_7 2.727921 1_455
Mg7_1 Rh24_3 2.727921 1_555
Mg7_1 Rh19_5 2.849537 1_455
Mg7_1 Rh19_1 2.849537 1_555
Mg7_1 Rh9_1 2.902188 1_555
Mg7_1 Rh9_5 2.902188 1_455
Mg7_1 Rh23_5 2.979910 1_455
Mg7_1 Rh23_1 2.979910 1_555
Mg7_2 Rh3_6 2.719340 1_455
Mg7_2 Rh3_2 2.719340 1_555
Mg7_2 Rh24_0 2.727921 1_565
Mg7_2 Rh24_4 2.727921 1_465
Mg7_2 Rh19_2 2.849537 1_555
Mg7_2 Rh19_6 2.849537 1_455
Mg7_2 Rh9_6 2.902188 1_455
Mg7_2 Rh9_2 2.902188 1_555
Mg7_2 Rh23_6 2.979910 1_455
Mg7_2 Rh23_2 2.979910 1_555
Mg7_3 Rh3_7 2.719340 1_455
Mg7_3 Rh3_3 2.719340 1_555
Mg7_3 Rh24_5 2.727921 1_465
Mg7_3 Rh24_1 2.727921 1_565
Mg7_3 Rh19_7 2.849537 1_455
Mg7_3 Rh19_3 2.849537 1_555
Mg7_3 Rh9_3 2.902188 1_555
Mg7_3 Rh9_7 2.902188 1_455
Mg7_3 Rh23_7 2.979910 1_455
Mg7_3 Rh23_3 2.979910 1_555
Mg7_4 Rh3_0 2.719340 1_555
Mg7_4 Rh3_4 2.719340 1_555
Mg7_4 Rh24_2 2.727921 1_555
Mg7_4 Rh24_6 2.727921 1_555
Mg7_4 Rh19_0 2.849537 1_555
Mg7_4 Rh19_4 2.849537 1_555
Mg7_4 Rh9_0 2.902188 1_555
Mg7_4 Rh9_4 2.902188 1_555
Mg7_4 Rh23_4 2.979910 1_555
Mg7_4 Rh23_0 2.979910 1_555
Mg7_5 Rh3_5 2.719340 1_555
Mg7_5 Rh3_1 2.719340 1_555
Mg7_5 Rh24_3 2.727921 1_555
Mg7_5 Rh24_7 2.727921 1_555
Mg7_5 Rh19_1 2.849537 1_555
Mg7_5 Rh19_5 2.849537 1_555
Mg7_5 Rh9_1 2.902188 1_555
Mg7_5 Rh9_5 2.902188 1_555
Mg7_5 Rh23_1 2.979910 1_555
Mg7_5 Rh23_5 2.979910 1_555
Mg7_6 Rh3_2 2.719340 1_555
Mg7_6 Rh3_6 2.719340 1_555
Mg7_6 Rh24_0 2.727921 1_565
Mg7_6 Rh24_4 2.727921 1_565
Mg7_6 Rh19_2 2.849537 1_555
Mg7_6 Rh19_6 2.849537 1_555
Mg7_6 Rh9_2 2.902188 1_555
Mg7_6 Rh9_6 2.902188 1_555
Mg7_6 Rh23_2 2.979910 1_555
Mg7_6 Rh23_6 2.979910 1_555
Mg7_7 Rh3_3 2.719340 1_555
Mg7_7 Rh3_7 2.719340 1_555
Mg7_7 Rh24_1 2.727921 1_565
Mg7_7 Rh24_5 2.727921 1_565
Mg7_7 Rh19_3 2.849537 1_555
Mg7_7 Rh19_7 2.849537 1_555
Mg7_7 Rh9_3 2.902188 1_555
Mg7_7 Rh9_7 2.902188 1_555
Mg7_7 Rh23_7 2.979910 1_555
Mg7_7 Rh23_3 2.979910 1_555
Mg8_0 Rh23_6 2.641879 1_445
Mg8_0 Rh23_2 2.641879 1_545
Mg8_0 Rh26_4 2.873736 1_455
Mg8_0 Rh26_0 2.873736 1_555
Mg8_0 Mg8_4 2.879068 1_555
Mg8_0 Mg8_4 2.879068 1_455
Mg8_0 Rh37_6 3.007670 1_445
Mg8_0 Rh37_2 3.007670 1_545
Mg8_1 Rh23_7 2.641879 1_445
Mg8_1 Rh23_3 2.641879 1_545
Mg8_1 Rh26_5 2.873736 1_455
Mg8_1 Rh26_1 2.873736 1_555
Mg8_1 Mg8_5 2.879068 1_455
Mg8_1 Mg8_5 2.879068 1_555
Mg8_1 Rh37_7 3.007670 1_445
Mg8_1 Rh37_3 3.007670 1_545
Mg8_2 Rh23_4 2.641879 1_455
Mg8_2 Rh23_0 2.641879 1_555
Mg8_2 Rh26_6 2.873736 1_455
Mg8_2 Rh26_2 2.873736 1_555
Mg8_2 Mg8_6 2.879068 1_555
Mg8_2 Mg8_6 2.879068 1_455
Mg8_2 Rh37_4 3.007670 1_455
Mg8_2 Rh37_0 3.007670 1_555
Mg8_3 Rh23_5 2.641879 1_455
Mg8_3 Rh23_1 2.641879 1_555
Mg8_3 Rh26_7 2.873736 1_455
Mg8_3 Rh26_3 2.873736 1_555
Mg8_3 Mg8_7 2.879068 1_555
Mg8_3 Mg8_7 2.879068 1_455
Mg8_3 Rh37_1 3.007670 1_555
Mg8_3 Rh37_5 3.007670 1_455
Mg8_4 Rh23_2 2.641879 1_545
Mg8_4 Rh23_6 2.641879 1_545
Mg8_4 Rh26_0 2.873736 1_555
Mg8_4 Rh26_4 2.873736 1_555
Mg8_4 Rh37_2 3.007670 1_545
Mg8_4 Rh37_6 3.007670 1_545
Mg8_5 Rh23_3 2.641879 1_545
Mg8_5 Rh23_7 2.641879 1_545
Mg8_5 Rh26_5 2.873736 1_555
Mg8_5 Rh26_1 2.873736 1_555
Mg8_5 Rh37_3 3.007670 1_545
Mg8_5 Rh37_7 3.007670 1_545
Mg8_6 Rh23_0 2.641879 1_555
Mg8_6 Rh23_4 2.641879 1_555
Mg8_6 Rh26_2 2.873736 1_555
Mg8_6 Rh26_6 2.873736 1_555
Mg8_6 Rh37_0 3.007670 1_555
Mg8_6 Rh37_4 3.007670 1_555
Mg8_7 Rh23_1 2.641879 1_555
Mg8_7 Rh23_5 2.641879 1_555
Mg8_7 Rh26_7 2.873736 1_555
Mg8_7 Rh26_3 2.873736 1_555
Mg8_7 Rh37_1 3.007670 1_555
Mg8_7 Rh37_5 3.007670 1_555
Mg9_0 Rh22_6 2.641879 1_455
Mg9_0 Rh22_2 2.641879 1_555
Mg9_0 Rh27_4 2.873736 1_455
Mg9_0 Rh27_0 2.873736 1_555
Mg9_0 Mg9_4 2.879068 1_555
Mg9_0 Mg9_4 2.879068 1_455
Mg9_0 Rh36_6 3.007670 1_455
Mg9_0 Rh36_2 3.007670 1_555
Mg9_1 Rh22_7 2.641879 1_455
Mg9_1 Rh22_3 2.641879 1_555
Mg9_1 Rh27_1 2.873736 1_555
Mg9_1 Rh27_5 2.873736 1_455
Mg9_1 Mg9_5 2.879068 1_455
Mg9_1 Mg9_5 2.879068 1_555
Mg9_1 Rh36_7 3.007670 1_455
Mg9_1 Rh36_3 3.007670 1_555
Mg9_2 Rh22_4 2.641879 1_465
Mg9_2 Rh22_0 2.641879 1_565
Mg9_2 Rh27_6 2.873736 1_455
Mg9_2 Rh27_2 2.873736 1_555
Mg9_2 Mg9_6 2.879068 1_555
Mg9_2 Mg9_6 2.879068 1_455
Mg9_2 Rh36_4 3.007670 1_465
Mg9_2 Rh36_0 3.007670 1_565
Mg9_3 Rh22_5 2.641879 1_465
Mg9_3 Rh22_1 2.641879 1_565
Mg9_3 Rh27_7 2.873736 1_455
Mg9_3 Rh27_3 2.873736 1_555
Mg9_3 Mg9_7 2.879068 1_455
Mg9_3 Mg9_7 2.879068 1_555
Mg9_3 Rh36_5 3.007670 1_465
Mg9_3 Rh36_1 3.007670 1_565
Mg9_4 Rh22_2 2.641879 1_555
Mg9_4 Rh22_6 2.641879 1_555
Mg9_4 Rh27_0 2.873736 1_555
Mg9_4 Rh27_4 2.873736 1_555
Mg9_4 Rh36_2 3.007670 1_555
Mg9_4 Rh36_6 3.007670 1_555
Mg9_5 Rh22_3 2.641879 1_555
Mg9_5 Rh22_7 2.641879 1_555
Mg9_5 Rh27_1 2.873736 1_555
Mg9_5 Rh27_5 2.873736 1_555
Mg9_5 Rh36_3 3.007670 1_555
Mg9_5 Rh36_7 3.007670 1_555
Mg9_6 Rh22_0 2.641879 1_565
Mg9_6 Rh22_4 2.641879 1_565
Mg9_6 Rh27_2 2.873736 1_555
Mg9_6 Rh27_6 2.873736 1_555
Mg9_6 Rh36_0 3.007670 1_565
Mg9_6 Rh36_4 3.007670 1_565
Mg9_7 Rh22_1 2.641879 1_565
Mg9_7 Rh22_5 2.641879 1_565
Mg9_7 Rh27_3 2.873736 1_555
Mg9_7 Rh27_7 2.873736 1_555
Mg9_7 Rh36_1 3.007670 1_565
Mg9_7 Rh36_5 3.007670 1_565
Mg10_0 Rh21_4 2.641879 1_455
Mg10_0 Rh21_0 2.641879 1_555
Mg10_0 Mg2_0 2.724982 1_555
Mg10_0 Mg14_0 2.778221 1_555
Mg10_0 Rh28_4 2.873736 1_455
Mg10_0 Rh28_0 2.873736 1_555
Mg10_0 Mg10_4 2.879068 1_455
Mg10_0 Mg10_4 2.879068 1_555
Mg10_0 Rh35_4 3.007670 1_455
Mg10_0 Rh35_0 3.007670 1_555
Mg10_1 Rh21_5 2.641879 1_455
Mg10_1 Rh21_1 2.641879 1_555
Mg10_1 Mg2_1 2.724982 1_555
Mg10_1 Mg14_1 2.778221 1_555
Mg10_1 Rh28_5 2.873736 1_455
Mg10_1 Rh28_1 2.873736 1_555
Mg10_1 Mg10_5 2.879068 1_455
Mg10_1 Mg10_5 2.879068 1_555
Mg10_1 Rh35_1 3.007670 1_555
Mg10_1 Rh35_5 3.007670 1_455
Mg10_2 Rh21_2 2.641879 1_555
Mg10_2 Rh21_6 2.641879 1_455
Mg10_2 Mg2_2 2.724982 1_555
Mg10_2 Mg14_2 2.778221 1_555
Mg10_2 Rh28_6 2.873736 1_455
Mg10_2 Rh28_2 2.873736 1_555
Mg10_2 Mg10_6 2.879068 1_455
Mg10_2 Mg10_6 2.879068 1_555
Mg10_2 Rh35_6 3.007670 1_455
Mg10_2 Rh35_2 3.007670 1_555
Mg10_3 Rh21_3 2.641879 1_555
Mg10_3 Rh21_7 2.641879 1_455
Mg10_3 Mg2_3 2.724982 1_555
Mg10_3 Mg14_3 2.778221 1_555
Mg10_3 Rh28_3 2.873736 1_555
Mg10_3 Rh28_7 2.873736 1_455
Mg10_3 Mg10_7 2.879068 1_555
Mg10_3 Mg10_7 2.879068 1_455
Mg10_3 Rh35_7 3.007670 1_455
Mg10_3 Rh35_3 3.007670 1_555
Mg10_4 Rh21_0 2.641879 1_555
Mg10_4 Rh21_4 2.641879 1_555
Mg10_4 Mg2_4 2.724982 1_555
Mg10_4 Mg14_4 2.778221 1_555
Mg10_4 Rh28_0 2.873736 1_555
Mg10_4 Rh28_4 2.873736 1_555
Mg10_4 Rh35_0 3.007670 1_555
Mg10_4 Rh35_4 3.007670 1_555
Mg10_5 Rh21_1 2.641879 1_555
Mg10_5 Rh21_5 2.641879 1_555
Mg10_5 Mg2_5 2.724982 1_555
Mg10_5 Mg14_5 2.778221 1_555
Mg10_5 Rh28_1 2.873736 1_555
Mg10_5 Rh28_5 2.873736 1_555
Mg10_5 Rh35_1 3.007670 1_555
Mg10_5 Rh35_5 3.007670 1_555
Mg10_6 Rh21_2 2.641879 1_555
Mg10_6 Rh21_6 2.641879 1_555
Mg10_6 Mg2_6 2.724982 1_555
Mg10_6 Mg14_6 2.778221 1_555
Mg10_6 Rh28_2 2.873736 1_555
Mg10_6 Rh28_6 2.873736 1_555
Mg10_6 Rh35_6 3.007670 1_555
Mg10_6 Rh35_2 3.007670 1_555
Mg10_7 Rh21_3 2.641879 1_555
Mg10_7 Rh21_7 2.641879 1_555
Mg10_7 Mg2_7 2.724982 1_555
Mg10_7 Mg14_7 2.778221 1_555
Mg10_7 Rh28_3 2.873736 1_555
Mg10_7 Rh28_7 2.873736 1_555
Mg10_7 Rh35_3 3.007670 1_555
Mg10_7 Rh35_7 3.007670 1_555
Mg11_0 Rh20_4 2.641879 1_455
Mg11_0 Rh20_0 2.641879 1_555
Mg11_0 Mg3_0 2.724982 1_555
Mg11_0 Mg15_0 2.778221 1_555
Mg11_0 Rh29_4 2.873736 1_455
Mg11_0 Rh29_0 2.873736 1_555
Mg11_0 Mg11_4 2.879068 1_555
Mg11_0 Mg11_4 2.879068 1_455
Mg11_0 Rh34_4 3.007670 1_455
Mg11_0 Rh34_0 3.007670 1_555
Mg11_1 Rh20_5 2.641879 1_455
Mg11_1 Rh20_1 2.641879 1_555
Mg11_1 Mg3_1 2.724982 1_555
Mg11_1 Mg15_1 2.778221 1_555
Mg11_1 Rh29_5 2.873736 1_455
Mg11_1 Rh29_1 2.873736 1_555
Mg11_1 Mg11_5 2.879068 1_555
Mg11_1 Mg11_5 2.879068 1_455
Mg11_1 Rh34_1 3.007670 1_555
Mg11_1 Rh34_5 3.007670 1_455
Mg11_2 Rh20_2 2.641879 1_555
Mg11_2 Rh20_6 2.641879 1_455
Mg11_2 Mg3_2 2.724982 1_555
Mg11_2 Mg15_2 2.778221 1_555
Mg11_2 Rh29_6 2.873736 1_455
Mg11_2 Rh29_2 2.873736 1_555
Mg11_2 Mg11_6 2.879068 1_455
Mg11_2 Mg11_6 2.879068 1_555
Mg11_2 Rh34_2 3.007670 1_555
Mg11_2 Rh34_6 3.007670 1_455
Mg11_3 Rh20_3 2.641879 1_555
Mg11_3 Rh20_7 2.641879 1_455
Mg11_3 Mg3_3 2.724982 1_555
Mg11_3 Mg15_3 2.778221 1_555
Mg11_3 Rh29_7 2.873736 1_455
Mg11_3 Rh29_3 2.873736 1_555
Mg11_3 Mg11_7 2.879068 1_455
Mg11_3 Mg11_7 2.879068 1_555
Mg11_3 Rh34_7 3.007670 1_455
Mg11_3 Rh34_3 3.007670 1_555
Mg11_4 Rh20_0 2.641879 1_555
Mg11_4 Rh20_4 2.641879 1_555
Mg11_4 Mg3_4 2.724982 1_555
Mg11_4 Mg15_4 2.778221 1_555
Mg11_4 Rh29_0 2.873736 1_555
Mg11_4 Rh29_4 2.873736 1_555
Mg11_4 Rh34_0 3.007670 1_555
Mg11_4 Rh34_4 3.007670 1_555
Mg11_5 Rh20_1 2.641879 1_555
Mg11_5 Rh20_5 2.641879 1_555
Mg11_5 Mg3_5 2.724982 1_555
Mg11_5 Mg15_5 2.778221 1_555
Mg11_5 Rh29_1 2.873736 1_555
Mg11_5 Rh29_5 2.873736 1_555
Mg11_5 Rh34_1 3.007670 1_555
Mg11_5 Rh34_5 3.007670 1_555
Mg11_6 Rh20_2 2.641879 1_555
Mg11_6 Rh20_6 2.641879 1_555
Mg11_6 Mg3_6 2.724982 1_555
Mg11_6 Mg15_6 2.778221 1_555
Mg11_6 Rh29_2 2.873736 1_555
Mg11_6 Rh29_6 2.873736 1_555
Mg11_6 Rh34_2 3.007670 1_555
Mg11_6 Rh34_6 3.007670 1_555
Mg11_7 Rh20_3 2.641879 1_555
Mg11_7 Rh20_7 2.641879 1_555
Mg11_7 Mg3_7 2.724982 1_555
Mg11_7 Mg15_7 2.778221 1_555
Mg11_7 Rh29_3 2.873736 1_555
Mg11_7 Rh29_7 2.873736 1_555
Mg11_7 Rh34_3 3.007670 1_555
Mg11_7 Rh34_7 3.007670 1_555
Mg12_0 Rh12_4 2.684518 1_455
Mg12_0 Rh12_0 2.684518 1_555
Mg12_0 Rh30_0 2.742741 1_555
Mg12_0 Rh30_4 2.742741 1_455
Mg12_0 Mg8_0 2.778221 1_555
Mg12_0 Rh26_4 2.818071 1_455
Mg12_0 Rh26_0 2.818071 1_555
Mg12_0 Rh8_4 2.835211 1_455
Mg12_0 Rh8_0 2.835211 1_555
Mg12_0 Mg12_4 2.879068 1_555
Mg12_0 Mg12_4 2.879068 1_455
Mg12_1 Rh12_5 2.684518 1_455
Mg12_1 Rh12_1 2.684518 1_555
Mg12_1 Rh30_5 2.742741 1_455
Mg12_1 Rh30_1 2.742741 1_555
Mg12_1 Mg8_1 2.778221 1_555
Mg12_1 Rh26_5 2.818071 1_455
Mg12_1 Rh26_1 2.818071 1_555
Mg12_1 Rh8_5 2.835211 1_455
Mg12_1 Rh8_1 2.835211 1_555
Mg12_1 Mg12_5 2.879068 1_455
Mg12_1 Mg12_5 2.879068 1_555
Mg12_2 Rh12_6 2.684518 1_455
Mg12_2 Rh12_2 2.684518 1_555
Mg12_2 Rh30_6 2.742741 1_455
Mg12_2 Rh30_2 2.742741 1_555
Mg12_2 Mg8_2 2.778221 1_555
Mg12_2 Rh26_6 2.818071 1_455
Mg12_2 Rh26_2 2.818071 1_555
Mg12_2 Rh8_2 2.835211 1_555
Mg12_2 Rh8_6 2.835211 1_455
Mg12_2 Mg12_6 2.879068 1_455
Mg12_2 Mg12_6 2.879068 1_555
Mg12_3 Rh12_7 2.684518 1_455
Mg12_3 Rh12_3 2.684518 1_555
Mg12_3 Rh30_7 2.742741 1_455
Mg12_3 Rh30_3 2.742741 1_555
Mg12_3 Mg8_3 2.778221 1_555
Mg12_3 Rh26_7 2.818071 1_455
Mg12_3 Rh26_3 2.818071 1_555
Mg12_3 Rh8_7 2.835211 1_455
Mg12_3 Rh8_3 2.835211 1_555
Mg12_3 Mg12_7 2.879068 1_555
Mg12_3 Mg12_7 2.879068 1_455
Mg12_4 Rh12_0 2.684518 1_555
Mg12_4 Rh12_4 2.684518 1_555
Mg12_4 Rh30_0 2.742741 1_555
Mg12_4 Rh30_4 2.742741 1_555
Mg12_4 Mg8_4 2.778221 1_555
Mg12_4 Rh26_0 2.818071 1_555
Mg12_4 Rh26_4 2.818071 1_555
Mg12_4 Rh8_0 2.835211 1_555
Mg12_4 Rh8_4 2.835211 1_555
Mg12_5 Rh12_1 2.684518 1_555
Mg12_5 Rh12_5 2.684518 1_555
Mg12_5 Rh30_1 2.742741 1_555
Mg12_5 Rh30_5 2.742741 1_555
Mg12_5 Mg8_5 2.778221 1_555
Mg12_5 Rh26_1 2.818071 1_555
Mg12_5 Rh26_5 2.818071 1_555
Mg12_5 Rh8_1 2.835211 1_555
Mg12_5 Rh8_5 2.835211 1_555
Mg12_6 Rh12_2 2.684518 1_555
Mg12_6 Rh12_6 2.684518 1_555
Mg12_6 Rh30_2 2.742741 1_555
Mg12_6 Rh30_6 2.742741 1_555
Mg12_6 Mg8_6 2.778221 1_555
Mg12_6 Rh26_2 2.818071 1_555
Mg12_6 Rh26_6 2.818071 1_555
Mg12_6 Rh8_2 2.835211 1_555
Mg12_6 Rh8_6 2.835211 1_555
Mg12_7 Rh12_3 2.684518 1_555
Mg12_7 Rh12_7 2.684518 1_555
Mg12_7 Rh30_3 2.742741 1_555
Mg12_7 Rh30_7 2.742741 1_555
Mg12_7 Mg8_7 2.778221 1_555
Mg12_7 Rh26_3 2.818071 1_555
Mg12_7 Rh26_7 2.818071 1_555
Mg12_7 Rh8_3 2.835211 1_555
Mg12_7 Rh8_7 2.835211 1_555
Mg13_0 Rh13_4 2.684518 1_455
Mg13_0 Rh13_0 2.684518 1_555
Mg13_0 Rh31_0 2.742741 1_555
Mg13_0 Rh31_4 2.742741 1_455
Mg13_0 Mg9_0 2.778221 1_555
Mg13_0 Rh27_4 2.818071 1_455
Mg13_0 Rh27_0 2.818071 1_555
Mg13_0 Rh9_4 2.835211 1_455
Mg13_0 Rh9_0 2.835211 1_555
Mg13_0 Mg13_4 2.879068 1_555
Mg13_0 Mg13_4 2.879068 1_455
Mg13_1 Rh13_5 2.684518 1_455
Mg13_1 Rh13_1 2.684518 1_555
Mg13_1 Rh31_1 2.742741 1_555
Mg13_1 Rh31_5 2.742741 1_455
Mg13_1 Mg9_1 2.778221 1_555
Mg13_1 Rh27_5 2.818071 1_455
Mg13_1 Rh27_1 2.818071 1_555
Mg13_1 Rh9_5 2.835211 1_455
Mg13_1 Rh9_1 2.835211 1_555
Mg13_1 Mg13_5 2.879068 1_555
Mg13_1 Mg13_5 2.879068 1_455
Mg13_2 Rh13_6 2.684518 1_455
Mg13_2 Rh13_2 2.684518 1_555
Mg13_2 Rh31_6 2.742741 1_455
Mg13_2 Rh31_2 2.742741 1_555
Mg13_2 Mg9_2 2.778221 1_555
Mg13_2 Rh27_6 2.818071 1_455
Mg13_2 Rh27_2 2.818071 1_555
Mg13_2 Rh9_6 2.835211 1_455
Mg13_2 Rh9_2 2.835211 1_555
Mg13_2 Mg13_6 2.879068 1_455
Mg13_2 Mg13_6 2.879068 1_555
Mg13_3 Rh13_7 2.684518 1_455
Mg13_3 Rh13_3 2.684518 1_555
Mg13_3 Rh31_7 2.742741 1_455
Mg13_3 Rh31_3 2.742741 1_555
Mg13_3 Mg9_3 2.778221 1_555
Mg13_3 Rh27_7 2.818071 1_455
Mg13_3 Rh27_3 2.818071 1_555
Mg13_3 Rh9_7 2.835211 1_455
Mg13_3 Rh9_3 2.835211 1_555
Mg13_3 Mg13_7 2.879068 1_455
Mg13_3 Mg13_7 2.879068 1_555
Mg13_4 Rh13_0 2.684518 1_555
Mg13_4 Rh13_4 2.684518 1_555
Mg13_4 Rh31_0 2.742741 1_555
Mg13_4 Rh31_4 2.742741 1_555
Mg13_4 Mg9_4 2.778221 1_555
Mg13_4 Rh27_0 2.818071 1_555
Mg13_4 Rh27_4 2.818071 1_555
Mg13_4 Rh9_0 2.835211 1_555
Mg13_4 Rh9_4 2.835211 1_555
Mg13_5 Rh13_1 2.684518 1_555
Mg13_5 Rh13_5 2.684518 1_555
Mg13_5 Rh31_1 2.742741 1_555
Mg13_5 Rh31_5 2.742741 1_555
Mg13_5 Mg9_5 2.778221 1_555
Mg13_5 Rh27_1 2.818071 1_555
Mg13_5 Rh27_5 2.818071 1_555
Mg13_5 Rh9_1 2.835211 1_555
Mg13_5 Rh9_5 2.835211 1_555
Mg13_6 Rh13_2 2.684518 1_555
Mg13_6 Rh13_6 2.684518 1_555
Mg13_6 Rh31_6 2.742741 1_555
Mg13_6 Rh31_2 2.742741 1_555
Mg13_6 Mg9_6 2.778221 1_555
Mg13_6 Rh27_2 2.818071 1_555
Mg13_6 Rh27_6 2.818071 1_555
Mg13_6 Rh9_2 2.835211 1_555
Mg13_6 Rh9_6 2.835211 1_555
Mg13_7 Rh13_3 2.684518 1_555
Mg13_7 Rh13_7 2.684518 1_555
Mg13_7 Rh31_3 2.742741 1_555
Mg13_7 Rh31_7 2.742741 1_555
Mg13_7 Mg9_7 2.778221 1_555
Mg13_7 Rh27_3 2.818071 1_555
Mg13_7 Rh27_7 2.818071 1_555
Mg13_7 Rh9_3 2.835211 1_555
Mg13_7 Rh9_7 2.835211 1_555
Mg14_0 Rh14_4 2.684518 1_455
Mg14_0 Rh14_0 2.684518 1_555
Mg14_0 Rh32_4 2.742741 1_455
Mg14_0 Rh32_0 2.742741 1_555
Mg14_0 Rh28_4 2.818071 1_455
Mg14_0 Rh28_0 2.818071 1_555
Mg14_0 Rh10_4 2.835211 1_455
Mg14_0 Rh10_0 2.835211 1_555
Mg14_0 Mg14_4 2.879068 1_555
Mg14_0 Mg14_4 2.879068 1_455
Mg14_1 Rh14_5 2.684518 1_455
Mg14_1 Rh14_1 2.684518 1_555
Mg14_1 Rh32_5 2.742741 1_455
Mg14_1 Rh32_1 2.742741 1_555
Mg14_1 Rh28_5 2.818071 1_455
Mg14_1 Rh28_1 2.818071 1_555
Mg14_1 Rh10_5 2.835211 1_455
Mg14_1 Rh10_1 2.835211 1_555
Mg14_1 Mg14_5 2.879068 1_455
Mg14_1 Mg14_5 2.879068 1_555
Mg14_2 Rh14_2 2.684518 1_555
Mg14_2 Rh14_6 2.684518 1_455
Mg14_2 Rh32_6 2.742741 1_455
Mg14_2 Rh32_2 2.742741 1_555
Mg14_2 Rh28_6 2.818071 1_455
Mg14_2 Rh28_2 2.818071 1_555
Mg14_2 Rh10_2 2.835211 1_555
Mg14_2 Rh10_6 2.835211 1_455
Mg14_2 Mg14_6 2.879068 1_555
Mg14_2 Mg14_6 2.879068 1_455
Mg14_3 Rh14_7 2.684518 1_455
Mg14_3 Rh14_3 2.684518 1_555
Mg14_3 Rh32_7 2.742741 1_455
Mg14_3 Rh32_3 2.742741 1_555
Mg14_3 Rh28_3 2.818071 1_555
Mg14_3 Rh28_7 2.818071 1_455
Mg14_3 Rh10_7 2.835211 1_455
Mg14_3 Rh10_3 2.835211 1_555
Mg14_3 Mg14_7 2.879068 1_555
Mg14_3 Mg14_7 2.879068 1_455
Mg14_4 Rh14_4 2.684518 1_555
Mg14_4 Rh14_0 2.684518 1_555
Mg14_4 Rh32_0 2.742741 1_555
Mg14_4 Rh32_4 2.742741 1_555
Mg14_4 Rh28_0 2.818071 1_555
Mg14_4 Rh28_4 2.818071 1_555
Mg14_4 Rh10_0 2.835211 1_555
Mg14_4 Rh10_4 2.835211 1_555
Mg14_5 Rh14_1 2.684518 1_555
Mg14_5 Rh14_5 2.684518 1_555
Mg14_5 Rh32_1 2.742741 1_555
Mg14_5 Rh32_5 2.742741 1_555
Mg14_5 Rh28_1 2.818071 1_555
Mg14_5 Rh28_5 2.818071 1_555
Mg14_5 Rh10_1 2.835211 1_555
Mg14_5 Rh10_5 2.835211 1_555
Mg14_6 Rh14_2 2.684518 1_555
Mg14_6 Rh14_6 2.684518 1_555
Mg14_6 Rh32_2 2.742741 1_555
Mg14_6 Rh32_6 2.742741 1_555
Mg14_6 Rh28_2 2.818071 1_555
Mg14_6 Rh28_6 2.818071 1_555
Mg14_6 Rh10_2 2.835211 1_555
Mg14_6 Rh10_6 2.835211 1_555
Mg14_7 Rh14_3 2.684518 1_555
Mg14_7 Rh14_7 2.684518 1_555
Mg14_7 Rh32_3 2.742741 1_555
Mg14_7 Rh32_7 2.742741 1_555
Mg14_7 Rh28_3 2.818071 1_555
Mg14_7 Rh28_7 2.818071 1_555
Mg14_7 Rh10_3 2.835211 1_555
Mg14_7 Rh10_7 2.835211 1_555
Mg15_0 Rh15_4 2.684518 1_455
Mg15_0 Rh15_0 2.684518 1_555
Mg15_0 Rh33_4 2.742741 1_455
Mg15_0 Rh33_0 2.742741 1_555
Mg15_0 Rh29_0 2.818071 1_555
Mg15_0 Rh29_4 2.818071 1_455
Mg15_0 Rh11_4 2.835211 1_455
Mg15_0 Rh11_0 2.835211 1_555
Mg15_0 Mg15_4 2.879068 1_455
Mg15_0 Mg15_4 2.879068 1_555
Mg15_1 Rh15_5 2.684518 1_455
Mg15_1 Rh15_1 2.684518 1_555
Mg15_1 Rh33_5 2.742741 1_455
Mg15_1 Rh33_1 2.742741 1_555
Mg15_1 Rh29_5 2.818071 1_455
Mg15_1 Rh29_1 2.818071 1_555
Mg15_1 Rh11_5 2.835211 1_455
Mg15_1 Rh11_1 2.835211 1_555
Mg15_1 Mg15_5 2.879068 1_455
Mg15_1 Mg15_5 2.879068 1_555
Mg15_2 Rh15_6 2.684518 1_455
Mg15_2 Rh15_2 2.684518 1_555
Mg15_2 Rh33_6 2.742741 1_455
Mg15_2 Rh33_2 2.742741 1_555
Mg15_2 Rh29_2 2.818071 1_555
Mg15_2 Rh29_6 2.818071 1_455
Mg15_2 Rh11_6 2.835211 1_455
Mg15_2 Rh11_2 2.835211 1_555
Mg15_2 Mg15_6 2.879068 1_455
Mg15_2 Mg15_6 2.879068 1_555
Mg15_3 Rh15_7 2.684518 1_455
Mg15_3 Rh15_3 2.684518 1_555
Mg15_3 Rh33_7 2.742741 1_455
Mg15_3 Rh33_3 2.742741 1_555
Mg15_3 Rh29_7 2.818071 1_455
Mg15_3 Rh29_3 2.818071 1_555
Mg15_3 Rh11_7 2.835211 1_455
Mg15_3 Rh11_3 2.835211 1_555
Mg15_3 Mg15_7 2.879068 1_455
Mg15_3 Mg15_7 2.879068 1_555
Mg15_4 Rh15_0 2.684518 1_555
Mg15_4 Rh15_4 2.684518 1_555
Mg15_4 Rh33_0 2.742741 1_555
Mg15_4 Rh33_4 2.742741 1_555
Mg15_4 Rh29_0 2.818071 1_555
Mg15_4 Rh29_4 2.818071 1_555
Mg15_4 Rh11_0 2.835211 1_555
Mg15_4 Rh11_4 2.835211 1_555
Mg15_5 Rh15_1 2.684518 1_555
Mg15_5 Rh15_5 2.684518 1_555
Mg15_5 Rh33_1 2.742741 1_555
Mg15_5 Rh33_5 2.742741 1_555
Mg15_5 Rh29_1 2.818071 1_555
Mg15_5 Rh29_5 2.818071 1_555
Mg15_5 Rh11_5 2.835211 1_555
Mg15_5 Rh11_1 2.835211 1_555
Mg15_6 Rh15_2 2.684518 1_555
Mg15_6 Rh15_6 2.684518 1_555
Mg15_6 Rh33_2 2.742741 1_555
Mg15_6 Rh33_6 2.742741 1_555
Mg15_6 Rh29_2 2.818071 1_555
Mg15_6 Rh29_6 2.818071 1_555
Mg15_6 Rh11_2 2.835211 1_555
Mg15_6 Rh11_6 2.835211 1_555
Mg15_7 Rh15_3 2.684518 1_555
Mg15_7 Rh15_7 2.684518 1_555
Mg15_7 Rh33_3 2.742741 1_555
Mg15_7 Rh33_7 2.742741 1_555
Mg15_7 Rh29_7 2.818071 1_555
Mg15_7 Rh29_3 2.818071 1_555
Mg15_7 Rh11_3 2.835211 1_555
Mg15_7 Rh11_7 2.835211 1_555
Mg16_0 Rh0_4 2.605477 1_455
Mg16_0 Rh0_0 2.605477 1_555
Mg16_0 Rh26_4 2.709161 1_455
Mg16_0 Rh26_0 2.709161 1_555
Mg16_0 Mg16_4 2.879068 1_455
Mg16_0 Mg16_4 2.879068 1_555
Mg16_0 Rh34_4 2.879173 1_455
Mg16_0 Rh34_0 2.879173 1_555
Mg16_0 Rh4_4 2.947182 1_455
Mg16_0 Rh4_0 2.947182 1_555
Mg16_1 Rh0_5 2.605477 1_455
Mg16_1 Rh0_1 2.605477 1_555
Mg16_1 Rh26_5 2.709161 1_455
Mg16_1 Rh26_1 2.709161 1_555
Mg16_1 Mg16_5 2.879068 1_455
Mg16_1 Mg16_5 2.879068 1_555
Mg16_1 Rh34_5 2.879173 1_455
Mg16_1 Rh34_1 2.879173 1_555
Mg16_1 Rh4_5 2.947182 1_455
Mg16_1 Rh4_1 2.947182 1_555
Mg16_2 Rh0_6 2.605477 1_455
Mg16_2 Rh0_2 2.605477 1_555
Mg16_2 Rh26_6 2.709161 1_455
Mg16_2 Rh26_2 2.709161 1_555
Mg16_2 Mg16_6 2.879068 1_455
Mg16_2 Mg16_6 2.879068 1_555
Mg16_2 Rh34_6 2.879173 1_455
Mg16_2 Rh34_2 2.879173 1_555
Mg16_2 Rh4_6 2.947182 1_455
Mg16_2 Rh4_2 2.947182 1_555
Mg16_3 Rh0_7 2.605477 1_455
Mg16_3 Rh0_3 2.605477 1_555
Mg16_3 Rh26_7 2.709161 1_455
Mg16_3 Rh26_3 2.709161 1_555
Mg16_3 Mg16_7 2.879068 1_455
Mg16_3 Mg16_7 2.879068 1_555
Mg16_3 Rh34_3 2.879173 1_555
Mg16_3 Rh34_7 2.879173 1_455
Mg16_3 Rh4_7 2.947182 1_455
Mg16_3 Rh4_3 2.947182 1_555
Mg16_4 Rh0_0 2.605477 1_555
Mg16_4 Rh0_4 2.605477 1_555
Mg16_4 Rh26_0 2.709161 1_555
Mg16_4 Rh26_4 2.709161 1_555
Mg16_4 Rh34_4 2.879173 1_555
Mg16_4 Rh34_0 2.879173 1_555
Mg16_4 Rh4_0 2.947182 1_555
Mg16_4 Rh4_4 2.947182 1_555
Mg16_5 Rh0_1 2.605477 1_555
Mg16_5 Rh0_5 2.605477 1_555
Mg16_5 Rh26_1 2.709161 1_555
Mg16_5 Rh26_5 2.709161 1_555
Mg16_5 Rh34_1 2.879173 1_555
Mg16_5 Rh34_5 2.879173 1_555
Mg16_5 Rh4_1 2.947182 1_555
Mg16_5 Rh4_5 2.947182 1_555
Mg16_6 Rh0_2 2.605477 1_555
Mg16_6 Rh0_6 2.605477 1_555
Mg16_6 Rh26_2 2.709161 1_555
Mg16_6 Rh26_6 2.709161 1_555
Mg16_6 Rh34_2 2.879173 1_555
Mg16_6 Rh34_6 2.879173 1_555
Mg16_6 Rh4_2 2.947182 1_555
Mg16_6 Rh4_6 2.947182 1_555
Mg16_7 Rh0_3 2.605477 1_555
Mg16_7 Rh0_7 2.605477 1_555
Mg16_7 Rh26_3 2.709161 1_555
Mg16_7 Rh26_7 2.709161 1_555
Mg16_7 Rh34_3 2.879173 1_555
Mg16_7 Rh34_7 2.879173 1_555
Mg16_7 Rh4_3 2.947182 1_555
Mg16_7 Rh4_7 2.947182 1_555
Mg17_0 Rh1_4 2.605477 1_455
Mg17_0 Rh1_0 2.605477 1_555
Mg17_0 Rh27_4 2.709161 1_455
Mg17_0 Rh27_0 2.709161 1_555
Mg17_0 Mg1_0 2.723009 1_555
Mg17_0 Mg17_4 2.879068 1_455
Mg17_0 Mg17_4 2.879068 1_555
Mg17_0 Rh35_0 2.879173 1_555
Mg17_0 Rh35_4 2.879173 1_455
Mg17_0 Rh5_4 2.947182 1_455
Mg17_0 Rh5_0 2.947182 1_555
Mg17_1 Rh1_1 2.605477 1_555
Mg17_1 Rh1_5 2.605477 1_455
Mg17_1 Rh27_5 2.709161 1_455
Mg17_1 Rh27_1 2.709161 1_555
Mg17_1 Mg1_1 2.723009 1_555
Mg17_1 Mg17_5 2.879068 1_555
Mg17_1 Mg17_5 2.879068 1_455
Mg17_1 Rh35_5 2.879173 1_455
Mg17_1 Rh35_1 2.879173 1_555
Mg17_1 Rh5_1 2.947182 1_555
Mg17_1 Rh5_5 2.947182 1_455
Mg17_2 Rh1_2 2.605477 1_555
Mg17_2 Rh1_6 2.605477 1_455
Mg17_2 Rh27_6 2.709161 1_455
Mg17_2 Rh27_2 2.709161 1_555
Mg17_2 Mg1_2 2.723009 1_555
Mg17_2 Mg17_6 2.879068 1_455
Mg17_2 Mg17_6 2.879068 1_555
Mg17_2 Rh35_6 2.879173 1_455
Mg17_2 Rh35_2 2.879173 1_555
Mg17_2 Rh5_6 2.947182 1_455
Mg17_2 Rh5_2 2.947182 1_555
Mg17_3 Rh1_7 2.605477 1_455
Mg17_3 Rh1_3 2.605477 1_555
Mg17_3 Rh27_7 2.709161 1_455
Mg17_3 Rh27_3 2.709161 1_555
Mg17_3 Mg1_3 2.723009 1_555
Mg17_3 Mg17_7 2.879068 1_455
Mg17_3 Mg17_7 2.879068 1_555
Mg17_3 Rh35_3 2.879173 1_555
Mg17_3 Rh35_7 2.879173 1_455
Mg17_3 Rh5_7 2.947182 1_455
Mg17_3 Rh5_3 2.947182 1_555
Mg17_4 Rh1_0 2.605477 1_555
Mg17_4 Rh1_4 2.605477 1_555
Mg17_4 Rh27_0 2.709161 1_555
Mg17_4 Rh27_4 2.709161 1_555
Mg17_4 Mg1_4 2.723009 1_555
Mg17_4 Rh35_0 2.879173 1_555
Mg17_4 Rh35_4 2.879173 1_555
Mg17_4 Rh5_0 2.947182 1_555
Mg17_4 Rh5_4 2.947182 1_555
Mg17_5 Rh1_1 2.605477 1_555
Mg17_5 Rh1_5 2.605477 1_555
Mg17_5 Rh27_1 2.709161 1_555
Mg17_5 Rh27_5 2.709161 1_555
Mg17_5 Mg1_5 2.723009 1_555
Mg17_5 Rh35_1 2.879173 1_555
Mg17_5 Rh35_5 2.879173 1_555
Mg17_5 Rh5_1 2.947182 1_555
Mg17_5 Rh5_5 2.947182 1_555
Mg17_6 Rh1_2 2.605477 1_555
Mg17_6 Rh1_6 2.605477 1_555
Mg17_6 Rh27_2 2.709161 1_555
Mg17_6 Rh27_6 2.709161 1_555
Mg17_6 Mg1_6 2.723009 1_555
Mg17_6 Rh35_2 2.879173 1_555
Mg17_6 Rh35_6 2.879173 1_555
Mg17_6 Rh5_2 2.947182 1_555
Mg17_6 Rh5_6 2.947182 1_555
Mg17_7 Rh1_3 2.605477 1_555
Mg17_7 Rh1_7 2.605477 1_555
Mg17_7 Rh27_3 2.709161 1_555
Mg17_7 Rh27_7 2.709161 1_555
Mg17_7 Mg1_7 2.723009 1_555
Mg17_7 Rh35_3 2.879173 1_555
Mg17_7 Rh35_7 2.879173 1_555
Mg17_7 Rh5_3 2.947182 1_555
Mg17_7 Rh5_7 2.947182 1_555
Mg18_0 Rh2_4 2.605477 1_455
Mg18_0 Rh2_0 2.605477 1_555
Mg18_0 Rh28_4 2.709161 1_455
Mg18_0 Rh28_0 2.709161 1_555
Mg18_0 Mg2_0 2.723009 1_555
Mg18_0 Mg18_4 2.879068 1_455
Mg18_0 Mg18_4 2.879068 1_555
Mg18_0 Rh36_4 2.879173 1_455
Mg18_0 Rh36_0 2.879173 1_555
Mg18_0 Rh6_4 2.947182 1_455
Mg18_0 Rh6_0 2.947182 1_555
Mg18_1 Rh2_5 2.605477 1_455
Mg18_1 Rh2_1 2.605477 1_555
Mg18_1 Rh28_5 2.709161 1_455
Mg18_1 Rh28_1 2.709161 1_555
Mg18_1 Mg2_1 2.723009 1_555
Mg18_1 Mg18_5 2.879068 1_455
Mg18_1 Mg18_5 2.879068 1_555
Mg18_1 Rh36_5 2.879173 1_455
Mg18_1 Rh36_1 2.879173 1_555
Mg18_1 Rh6_5 2.947182 1_455
Mg18_1 Rh6_1 2.947182 1_555
Mg18_2 Rh2_6 2.605477 1_455
Mg18_2 Rh2_2 2.605477 1_555
Mg18_2 Rh28_6 2.709161 1_455
Mg18_2 Rh28_2 2.709161 1_555
Mg18_2 Mg2_2 2.723009 1_555
Mg18_2 Mg18_6 2.879068 1_455
Mg18_2 Mg18_6 2.879068 1_555
Mg18_2 Rh36_2 2.879173 1_555
Mg18_2 Rh36_6 2.879173 1_455
Mg18_2 Rh6_6 2.947182 1_455
Mg18_2 Rh6_2 2.947182 1_555
Mg18_3 Rh2_7 2.605477 1_455
Mg18_3 Rh2_3 2.605477 1_555
Mg18_3 Rh28_7 2.709161 1_455
Mg18_3 Rh28_3 2.709161 1_555
Mg18_3 Mg2_3 2.723009 1_555
Mg18_3 Mg18_7 2.879068 1_455
Mg18_3 Mg18_7 2.879068 1_555
Mg18_3 Rh36_7 2.879173 1_455
Mg18_3 Rh36_3 2.879173 1_555
Mg18_3 Rh6_7 2.947182 1_455
Mg18_3 Rh6_3 2.947182 1_555
Mg18_4 Rh2_0 2.605477 1_555
Mg18_4 Rh2_4 2.605477 1_555
Mg18_4 Rh28_0 2.709161 1_555
Mg18_4 Rh28_4 2.709161 1_555
Mg18_4 Mg2_4 2.723009 1_555
Mg18_4 Rh36_0 2.879173 1_555
Mg18_4 Rh36_4 2.879173 1_555
Mg18_4 Rh6_0 2.947182 1_555
Mg18_4 Rh6_4 2.947182 1_555
Mg18_5 Rh2_1 2.605477 1_555
Mg18_5 Rh2_5 2.605477 1_555
Mg18_5 Rh28_1 2.709161 1_555
Mg18_5 Rh28_5 2.709161 1_555
Mg18_5 Mg2_5 2.723009 1_555
Mg18_5 Rh36_1 2.879173 1_555
Mg18_5 Rh36_5 2.879173 1_555
Mg18_5 Rh6_1 2.947182 1_555
Mg18_5 Rh6_5 2.947182 1_555
Mg18_6 Rh2_2 2.605477 1_555
Mg18_6 Rh2_6 2.605477 1_555
Mg18_6 Rh28_2 2.709161 1_555
Mg18_6 Rh28_6 2.709161 1_555
Mg18_6 Mg2_6 2.723009 1_555
Mg18_6 Rh36_2 2.879173 1_555
Mg18_6 Rh36_6 2.879173 1_555
Mg18_6 Rh6_2 2.947182 1_555
Mg18_6 Rh6_6 2.947182 1_555
Mg18_7 Rh2_3 2.605477 1_555
Mg18_7 Rh2_7 2.605477 1_555
Mg18_7 Rh28_3 2.709161 1_555
Mg18_7 Rh28_7 2.709161 1_555
Mg18_7 Mg2_7 2.723009 1_555
Mg18_7 Rh36_3 2.879173 1_555
Mg18_7 Rh36_7 2.879173 1_555
Mg18_7 Rh6_3 2.947182 1_555
Mg18_7 Rh6_7 2.947182 1_555
Mg19_0 Rh3_4 2.605477 1_455
Mg19_0 Rh3_0 2.605477 1_555
Mg19_0 Rh29_4 2.709161 1_455
Mg19_0 Rh29_0 2.709161 1_555
Mg19_0 Mg3_0 2.723009 1_555
Mg19_0 Mg19_4 2.879068 1_555
Mg19_0 Mg19_4 2.879068 1_455
Mg19_0 Rh37_4 2.879173 1_455
Mg19_0 Rh37_0 2.879173 1_555
Mg19_0 Rh7_4 2.947182 1_455
Mg19_0 Rh7_0 2.947182 1_555
Mg19_1 Rh3_5 2.605477 1_455
Mg19_1 Rh3_1 2.605477 1_555
Mg19_1 Rh29_5 2.709161 1_455
Mg19_1 Rh29_1 2.709161 1_555
Mg19_1 Mg3_1 2.723009 1_555
Mg19_1 Mg19_5 2.879068 1_555
Mg19_1 Mg19_5 2.879068 1_455
Mg19_1 Rh37_5 2.879173 1_455
Mg19_1 Rh37_1 2.879173 1_555
Mg19_1 Rh7_1 2.947182 1_555
Mg19_1 Rh7_5 2.947182 1_455
Mg19_2 Rh3_2 2.605477 1_555
Mg19_2 Rh3_6 2.605477 1_455
Mg19_2 Rh29_6 2.709161 1_455
Mg19_2 Rh29_2 2.709161 1_555
Mg19_2 Mg3_2 2.723009 1_555
Mg19_2 Mg19_6 2.879068 1_455
Mg19_2 Mg19_6 2.879068 1_555
Mg19_2 Rh37_2 2.879173 1_555
Mg19_2 Rh37_6 2.879173 1_455
Mg19_2 Rh7_6 2.947182 1_455
Mg19_2 Rh7_2 2.947182 1_555
Mg19_3 Rh3_7 2.605477 1_455
Mg19_3 Rh3_3 2.605477 1_555
Mg19_3 Rh29_7 2.709161 1_455
Mg19_3 Rh29_3 2.709161 1_555
Mg19_3 Mg3_3 2.723009 1_555
Mg19_3 Mg19_7 2.879068 1_455
Mg19_3 Mg19_7 2.879068 1_555
Mg19_3 Rh37_3 2.879173 1_555
Mg19_3 Rh37_7 2.879173 1_455
Mg19_3 Rh7_3 2.947182 1_555
Mg19_3 Rh7_7 2.947182 1_455
Mg19_4 Rh3_0 2.605477 1_555
Mg19_4 Rh3_4 2.605477 1_555
Mg19_4 Rh29_0 2.709161 1_555
Mg19_4 Rh29_4 2.709161 1_555
Mg19_4 Mg3_4 2.723009 1_555
Mg19_4 Rh37_0 2.879173 1_555
Mg19_4 Rh37_4 2.879173 1_555
Mg19_4 Rh7_0 2.947182 1_555
Mg19_4 Rh7_4 2.947182 1_555
Mg19_5 Rh3_1 2.605477 1_555
Mg19_5 Rh3_5 2.605477 1_555
Mg19_5 Rh29_1 2.709161 1_555
Mg19_5 Rh29_5 2.709161 1_555
Mg19_5 Mg3_5 2.723009 1_555
Mg19_5 Rh37_1 2.879173 1_555
Mg19_5 Rh37_5 2.879173 1_555
Mg19_5 Rh7_1 2.947182 1_555
Mg19_5 Rh7_5 2.947182 1_555
Mg19_6 Rh3_2 2.605477 1_555
Mg19_6 Rh3_6 2.605477 1_555
Mg19_6 Rh29_2 2.709161 1_555
Mg19_6 Rh29_6 2.709161 1_555
Mg19_6 Mg3_6 2.723009 1_555
Mg19_6 Rh37_2 2.879173 1_555
Mg19_6 Rh37_6 2.879173 1_555
Mg19_6 Rh7_2 2.947182 1_555
Mg19_6 Rh7_6 2.947182 1_555
Mg19_7 Rh3_3 2.605477 1_555
Mg19_7 Rh3_7 2.605477 1_555
Mg19_7 Rh29_3 2.709161 1_555
Mg19_7 Rh29_7 2.709161 1_555
Mg19_7 Mg3_7 2.723009 1_555
Mg19_7 Rh37_3 2.879173 1_555
Mg19_7 Rh37_7 2.879173 1_555
Mg19_7 Rh7_3 2.947182 1_555
Mg19_7 Rh7_7 2.947182 1_555
B0_0 Rh26_4 2.157244 1_455
B0_0 Rh26_0 2.157244 1_555
B0_0 Rh30_4 2.247009 1_455
B0_0 Rh30_0 2.247009 1_555
B0_0 Rh34_4 2.312410 1_455
B0_0 Rh34_0 2.312410 1_555
B0_0 Mg16_0 2.548410 1_555
B0_0 Mg12_0 2.701455 1_555
B0_1 Rh26_5 2.157244 1_455
B0_1 Rh26_1 2.157244 1_555
B0_1 Rh30_5 2.247009 1_455
B0_1 Rh30_1 2.247009 1_555
B0_1 Rh34_5 2.312410 1_455
B0_1 Rh34_1 2.312410 1_555
B0_1 Mg16_1 2.548410 1_555
B0_1 Mg12_1 2.701455 1_555
B0_2 Rh26_6 2.157244 1_455
B0_2 Rh26_2 2.157244 1_555
B0_2 Rh30_6 2.247009 1_455
B0_2 Rh30_2 2.247009 1_555
B0_2 Rh34_6 2.312410 1_455
B0_2 Rh34_2 2.312410 1_555
B0_2 Mg16_2 2.548410 1_555
B0_2 Mg12_2 2.701455 1_555
B0_3 Rh26_7 2.157244 1_455
B0_3 Rh26_3 2.157244 1_555
B0_3 Rh30_7 2.247009 1_455
B0_3 Rh30_3 2.247009 1_555
B0_3 Rh34_7 2.312410 1_455
B0_3 Rh34_3 2.312410 1_555
B0_3 Mg16_3 2.548410 1_555
B0_3 Mg12_3 2.701455 1_555
B0_4 Rh26_0 2.157244 1_555
B0_4 Rh26_4 2.157244 1_555
B0_4 Rh30_0 2.247009 1_555
B0_4 Rh30_4 2.247009 1_555
B0_4 Rh34_0 2.312410 1_555
B0_4 Rh34_4 2.312410 1_555
B0_4 Mg16_4 2.548410 1_555
B0_4 Mg12_4 2.701455 1_555
B0_5 Rh26_1 2.157244 1_555
B0_5 Rh26_5 2.157244 1_555
B0_5 Rh30_1 2.247009 1_555
B0_5 Rh30_5 2.247009 1_555
B0_5 Rh34_1 2.312410 1_555
B0_5 Rh34_5 2.312410 1_555
B0_5 Mg16_5 2.548410 1_555
B0_5 Mg12_5 2.701455 1_555
B0_6 Rh26_2 2.157244 1_555
B0_6 Rh26_6 2.157244 1_555
B0_6 Rh30_2 2.247009 1_555
B0_6 Rh30_6 2.247009 1_555
B0_6 Rh34_2 2.312410 1_555
B0_6 Rh34_6 2.312410 1_555
B0_6 Mg16_6 2.548410 1_555
B0_6 Mg12_6 2.701455 1_555
B0_7 Rh26_3 2.157244 1_555
B0_7 Rh26_7 2.157244 1_555
B0_7 Rh30_3 2.247009 1_555
B0_7 Rh30_7 2.247009 1_555
B0_7 Rh34_3 2.312410 1_555
B0_7 Rh34_7 2.312410 1_555
B0_7 Mg16_7 2.548410 1_555
B0_7 Mg12_7 2.701455 1_555
B1_0 Rh27_4 2.157244 1_455
B1_0 Rh27_0 2.157244 1_555
B1_0 Rh31_4 2.247009 1_455
B1_0 Rh31_0 2.247009 1_555
B1_0 Rh35_4 2.312410 1_455
B1_0 Rh35_0 2.312410 1_555
B1_0 Mg17_0 2.548410 1_555
B1_0 Mg13_0 2.701455 1_555
B1_1 Rh27_5 2.157244 1_455
B1_1 Rh27_1 2.157244 1_555
B1_1 Rh31_5 2.247009 1_455
B1_1 Rh31_1 2.247009 1_555
B1_1 Rh35_5 2.312410 1_455
B1_1 Rh35_1 2.312410 1_555
B1_1 Mg17_1 2.548410 1_555
B1_1 Mg13_1 2.701455 1_555
B1_2 Rh27_6 2.157244 1_455
B1_2 Rh27_2 2.157244 1_555
B1_2 Rh31_6 2.247009 1_455
B1_2 Rh31_2 2.247009 1_555
B1_2 Rh35_6 2.312410 1_455
B1_2 Rh35_2 2.312410 1_555
B1_2 Mg17_2 2.548410 1_555
B1_2 Mg13_2 2.701455 1_555
B1_3 Rh27_7 2.157244 1_455
B1_3 Rh27_3 2.157244 1_555
B1_3 Rh31_7 2.247009 1_455
B1_3 Rh31_3 2.247009 1_555
B1_3 Rh35_7 2.312410 1_455
B1_3 Rh35_3 2.312410 1_555
B1_3 Mg17_3 2.548410 1_555
B1_3 Mg13_3 2.701455 1_555
B1_4 Rh27_0 2.157244 1_555
B1_4 Rh27_4 2.157244 1_555
B1_4 Rh31_0 2.247009 1_555
B1_4 Rh31_4 2.247009 1_555
B1_4 Rh35_0 2.312410 1_555
B1_4 Rh35_4 2.312410 1_555
B1_4 Mg17_4 2.548410 1_555
B1_4 Mg13_4 2.701455 1_555
B1_5 Rh27_1 2.157244 1_555
B1_5 Rh27_5 2.157244 1_555
B1_5 Rh31_1 2.247009 1_555
B1_5 Rh31_5 2.247009 1_555
B1_5 Rh35_1 2.312410 1_555
B1_5 Rh35_5 2.312410 1_555
B1_5 Mg17_5 2.548410 1_555
B1_5 Mg13_5 2.701455 1_555
B1_6 Rh27_2 2.157244 1_555
B1_6 Rh27_6 2.157244 1_555
B1_6 Rh31_2 2.247009 1_555
B1_6 Rh31_6 2.247009 1_555
B1_6 Rh35_2 2.312410 1_555
B1_6 Rh35_6 2.312410 1_555
B1_6 Mg17_6 2.548410 1_555
B1_6 Mg13_6 2.701455 1_555
B1_7 Rh27_3 2.157244 1_555
B1_7 Rh27_7 2.157244 1_555
B1_7 Rh31_3 2.247009 1_555
B1_7 Rh31_7 2.247009 1_555
B1_7 Rh35_3 2.312410 1_555
B1_7 Rh35_7 2.312410 1_555
B1_7 Mg17_7 2.548410 1_555
B1_7 Mg13_7 2.701455 1_555
B2_0 Rh28_4 2.157244 1_455
B2_0 Rh28_0 2.157244 1_555
B2_0 Rh32_0 2.247009 1_555
B2_0 Rh32_4 2.247009 1_455
B2_0 Rh36_4 2.312410 1_455
B2_0 Rh36_0 2.312410 1_555
B2_0 Mg18_0 2.548410 1_555
B2_0 Mg14_0 2.701455 1_555
B2_1 Rh28_5 2.157244 1_455
B2_1 Rh28_1 2.157244 1_555
B2_1 Rh32_5 2.247009 1_455
B2_1 Rh32_1 2.247009 1_555
B2_1 Rh36_5 2.312410 1_455
B2_1 Rh36_1 2.312410 1_555
B2_1 Mg18_1 2.548410 1_555
B2_1 Mg14_1 2.701455 1_555
B2_2 Rh28_6 2.157244 1_455
B2_2 Rh28_2 2.157244 1_555
B2_2 Rh32_6 2.247009 1_455
B2_2 Rh32_2 2.247009 1_555
B2_2 Rh36_6 2.312410 1_455
B2_2 Rh36_2 2.312410 1_555
B2_2 Mg18_2 2.548410 1_555
B2_2 Mg14_2 2.701455 1_555
B2_3 Rh28_7 2.157244 1_455
B2_3 Rh28_3 2.157244 1_555
B2_3 Rh32_7 2.247009 1_455
B2_3 Rh32_3 2.247009 1_555
B2_3 Rh36_7 2.312410 1_455
B2_3 Rh36_3 2.312410 1_555
B2_3 Mg18_3 2.548410 1_555
B2_3 Mg14_3 2.701455 1_555
B2_4 Rh28_0 2.157244 1_555
B2_4 Rh28_4 2.157244 1_555
B2_4 Rh32_0 2.247009 1_555
B2_4 Rh32_4 2.247009 1_555
B2_4 Rh36_4 2.312410 1_555
B2_4 Rh36_0 2.312410 1_555
B2_4 Mg18_4 2.548410 1_555
B2_4 Mg14_4 2.701455 1_555
B2_5 Rh28_1 2.157244 1_555
B2_5 Rh28_5 2.157244 1_555
B2_5 Rh32_1 2.247009 1_555
B2_5 Rh32_5 2.247009 1_555
B2_5 Rh36_1 2.312410 1_555
B2_5 Rh36_5 2.312410 1_555
B2_5 Mg18_5 2.548410 1_555
B2_5 Mg14_5 2.701455 1_555
B2_6 Rh28_2 2.157244 1_555
B2_6 Rh28_6 2.157244 1_555
B2_6 Rh32_2 2.247009 1_555
B2_6 Rh32_6 2.247009 1_555
B2_6 Rh36_2 2.312410 1_555
B2_6 Rh36_6 2.312410 1_555
B2_6 Mg18_6 2.548410 1_555
B2_6 Mg14_6 2.701455 1_555
B2_7 Rh28_3 2.157244 1_555
B2_7 Rh28_7 2.157244 1_555
B2_7 Rh32_3 2.247009 1_555
B2_7 Rh32_7 2.247009 1_555
B2_7 Rh36_3 2.312410 1_555
B2_7 Rh36_7 2.312410 1_555
B2_7 Mg18_7 2.548410 1_555
B2_7 Mg14_7 2.701455 1_555
B3_0 Rh29_4 2.157244 1_455
B3_0 Rh29_0 2.157244 1_555
B3_0 Rh33_4 2.247009 1_455
B3_0 Rh33_0 2.247009 1_555
B3_0 Rh37_4 2.312410 1_455
B3_0 Rh37_0 2.312410 1_555
B3_0 Mg19_0 2.548410 1_555
B3_0 Mg15_0 2.701455 1_555
B3_1 Rh29_5 2.157244 1_455
B3_1 Rh29_1 2.157244 1_555
B3_1 Rh33_5 2.247009 1_455
B3_1 Rh33_1 2.247009 1_555
B3_1 Rh37_5 2.312410 1_455
B3_1 Rh37_1 2.312410 1_555
B3_1 Mg19_1 2.548410 1_555
B3_1 Mg15_1 2.701455 1_555
B3_2 Rh29_6 2.157244 1_455
B3_2 Rh29_2 2.157244 1_555
B3_2 Rh33_6 2.247009 1_455
B3_2 Rh33_2 2.247009 1_555
B3_2 Rh37_6 2.312410 1_455
B3_2 Rh37_2 2.312410 1_555
B3_2 Mg19_2 2.548410 1_555
B3_2 Mg15_2 2.701455 1_555
B3_3 Rh29_7 2.157244 1_455
B3_3 Rh29_3 2.157244 1_555
B3_3 Rh33_7 2.247009 1_455
B3_3 Rh33_3 2.247009 1_555
B3_3 Rh37_7 2.312410 1_455
B3_3 Rh37_3 2.312410 1_555
B3_3 Mg19_3 2.548410 1_555
B3_3 Mg15_3 2.701455 1_555
B3_4 Rh29_0 2.157244 1_555
B3_4 Rh29_4 2.157244 1_555
B3_4 Rh33_0 2.247009 1_555
B3_4 Rh33_4 2.247009 1_555
B3_4 Rh37_0 2.312410 1_555
B3_4 Rh37_4 2.312410 1_555
B3_4 Mg19_4 2.548410 1_555
B3_4 Mg15_4 2.701455 1_555
B3_5 Rh29_1 2.157244 1_555
B3_5 Rh29_5 2.157244 1_555
B3_5 Rh33_1 2.247009 1_555
B3_5 Rh33_5 2.247009 1_555
B3_5 Rh37_1 2.312410 1_555
B3_5 Rh37_5 2.312410 1_555
B3_5 Mg19_5 2.548410 1_555
B3_5 Mg15_5 2.701455 1_555
B3_6 Rh29_2 2.157244 1_555
B3_6 Rh29_6 2.157244 1_555
B3_6 Rh33_2 2.247009 1_555
B3_6 Rh33_6 2.247009 1_555
B3_6 Rh37_2 2.312410 1_555
B3_6 Rh37_6 2.312410 1_555
B3_6 Mg19_6 2.548410 1_555
B3_6 Mg15_6 2.701455 1_555
B3_7 Rh29_3 2.157244 1_555
B3_7 Rh29_7 2.157244 1_555
B3_7 Rh33_3 2.247009 1_555
B3_7 Rh33_7 2.247009 1_555
B3_7 Rh37_3 2.312410 1_555
B3_7 Rh37_7 2.312410 1_555
B3_7 Mg19_7 2.548410 1_555
B3_7 Mg15_7 2.701455 1_555
B4_0 Rh34_4 2.196963 1_455
B4_0 Rh34_0 2.196963 1_555
B4_0 Rh20_4 2.204612 1_455
B4_0 Rh20_0 2.204612 1_555
B4_0 Rh0_0 2.235395 1_555
B4_0 Rh0_4 2.235395 1_455
B4_0 Mg16_0 2.621374 1_555
B4_0 Mg11_0 2.661219 1_555
B4_1 Rh34_5 2.196963 1_455
B4_1 Rh34_1 2.196963 1_555
B4_1 Rh20_5 2.204612 1_455
B4_1 Rh20_1 2.204612 1_555
B4_1 Rh0_5 2.235395 1_455
B4_1 Rh0_1 2.235395 1_555
B4_1 Mg16_1 2.621374 1_555
B4_1 Mg11_1 2.661219 1_555
B4_2 Rh34_6 2.196963 1_455
B4_2 Rh34_2 2.196963 1_555
B4_2 Rh20_6 2.204612 1_455
B4_2 Rh20_2 2.204612 1_555
B4_2 Rh0_6 2.235395 1_455
B4_2 Rh0_2 2.235395 1_555
B4_2 Mg16_2 2.621374 1_555
B4_2 Mg11_2 2.661219 1_555
B4_3 Rh34_7 2.196963 1_455
B4_3 Rh34_3 2.196963 1_555
B4_3 Rh20_7 2.204612 1_455
B4_3 Rh20_3 2.204612 1_555
B4_3 Rh0_7 2.235395 1_455
B4_3 Rh0_3 2.235395 1_555
B4_3 Mg16_3 2.621374 1_555
B4_3 Mg11_3 2.661219 1_555
B4_4 Rh34_0 2.196963 1_555
B4_4 Rh34_4 2.196963 1_555
B4_4 Rh20_0 2.204612 1_555
B4_4 Rh20_4 2.204612 1_555
B4_4 Rh0_0 2.235395 1_555
B4_4 Rh0_4 2.235395 1_555
B4_4 Mg16_4 2.621374 1_555
B4_4 Mg11_4 2.661219 1_555
B4_5 Rh34_1 2.196963 1_555
B4_5 Rh34_5 2.196963 1_555
B4_5 Rh20_1 2.204612 1_555
B4_5 Rh20_5 2.204612 1_555
B4_5 Rh0_1 2.235395 1_555
B4_5 Rh0_5 2.235395 1_555
B4_5 Mg16_5 2.621374 1_555
B4_5 Mg11_5 2.661219 1_555
B4_6 Rh34_2 2.196963 1_555
B4_6 Rh34_6 2.196963 1_555
B4_6 Rh20_2 2.204612 1_555
B4_6 Rh20_6 2.204612 1_555
B4_6 Rh0_2 2.235395 1_555
B4_6 Rh0_6 2.235395 1_555
B4_6 Mg16_6 2.621374 1_555
B4_6 Mg11_6 2.661219 1_555
B4_7 Rh34_3 2.196963 1_555
B4_7 Rh34_7 2.196963 1_555
B4_7 Rh20_3 2.204612 1_555
B4_7 Rh20_7 2.204612 1_555
B4_7 Rh0_3 2.235395 1_555
B4_7 Rh0_7 2.235395 1_555
B4_7 Mg16_7 2.621374 1_555
B4_7 Mg11_7 2.661219 1_555
B5_0 Rh35_4 2.196963 1_455
B5_0 Rh35_0 2.196963 1_555
B5_0 Rh21_4 2.204612 1_455
B5_0 Rh21_0 2.204612 1_555
B5_0 Rh1_4 2.235395 1_455
B5_0 Rh1_0 2.235395 1_555
B5_0 Mg17_0 2.621374 1_555
B5_0 Mg10_0 2.661219 1_555
B5_1 Rh35_5 2.196963 1_455
B5_1 Rh35_1 2.196963 1_555
B5_1 Rh21_5 2.204612 1_455
B5_1 Rh21_1 2.204612 1_555
B5_1 Rh1_5 2.235395 1_455
B5_1 Rh1_1 2.235395 1_555
B5_1 Mg17_1 2.621374 1_555
B5_1 Mg10_1 2.661219 1_555
B5_2 Rh35_6 2.196963 1_455
B5_2 Rh35_2 2.196963 1_555
B5_2 Rh21_6 2.204612 1_455
B5_2 Rh21_2 2.204612 1_555
B5_2 Rh1_6 2.235395 1_455
B5_2 Rh1_2 2.235395 1_555
B5_2 Mg17_2 2.621374 1_555
B5_2 Mg10_2 2.661219 1_555
B5_3 Rh35_7 2.196963 1_455
B5_3 Rh35_3 2.196963 1_555
B5_3 Rh21_7 2.204612 1_455
B5_3 Rh21_3 2.204612 1_555
B5_3 Rh1_7 2.235395 1_455
B5_3 Rh1_3 2.235395 1_555
B5_3 Mg17_3 2.621374 1_555
B5_3 Mg10_3 2.661219 1_555
B5_4 Rh35_0 2.196963 1_555
B5_4 Rh35_4 2.196963 1_555
B5_4 Rh21_0 2.204612 1_555
B5_4 Rh21_4 2.204612 1_555
B5_4 Rh1_0 2.235395 1_555
B5_4 Rh1_4 2.235395 1_555
B5_4 Mg17_4 2.621374 1_555
B5_4 Mg10_4 2.661219 1_555
B5_5 Rh35_1 2.196963 1_555
B5_5 Rh35_5 2.196963 1_555
B5_5 Rh21_1 2.204612 1_555
B5_5 Rh21_5 2.204612 1_555
B5_5 Rh1_1 2.235395 1_555
B5_5 Rh1_5 2.235395 1_555
B5_5 Mg17_5 2.621374 1_555
B5_5 Mg10_5 2.661219 1_555
B5_6 Rh35_2 2.196963 1_555
B5_6 Rh35_6 2.196963 1_555
B5_6 Rh21_2 2.204612 1_555
B5_6 Rh21_6 2.204612 1_555
B5_6 Rh1_2 2.235395 1_555
B5_6 Rh1_6 2.235395 1_555
B5_6 Mg17_6 2.621374 1_555
B5_6 Mg10_6 2.661219 1_555
B5_7 Rh35_3 2.196963 1_555
B5_7 Rh35_7 2.196963 1_555
B5_7 Rh21_3 2.204612 1_555
B5_7 Rh21_7 2.204612 1_555
B5_7 Rh1_3 2.235395 1_555
B5_7 Rh1_7 2.235395 1_555
B5_7 Mg17_7 2.621374 1_555
B5_7 Mg10_7 2.661219 1_555
B6_0 Rh36_4 2.196963 1_455
B6_0 Rh36_0 2.196963 1_555
B6_0 Rh22_4 2.204612 1_455
B6_0 Rh22_0 2.204612 1_555
B6_0 Rh2_4 2.235395 1_455
B6_0 Rh2_0 2.235395 1_555
B6_0 Mg18_0 2.621374 1_555
B6_0 Mg9_2 2.661219 1_545
B6_1 Rh36_5 2.196963 1_455
B6_1 Rh36_1 2.196963 1_555
B6_1 Rh22_5 2.204612 1_455
B6_1 Rh22_1 2.204612 1_555
B6_1 Rh2_5 2.235395 1_455
B6_1 Rh2_1 2.235395 1_555
B6_1 Mg18_1 2.621374 1_555
B6_1 Mg9_3 2.661219 1_545
B6_2 Rh36_6 2.196963 1_455
B6_2 Rh36_2 2.196963 1_555
B6_2 Rh22_6 2.204612 1_455
B6_2 Rh22_2 2.204612 1_555
B6_2 Rh2_6 2.235395 1_455
B6_2 Rh2_2 2.235395 1_555
B6_2 Mg18_2 2.621374 1_555
B6_2 Mg9_0 2.661219 1_555
B6_3 Rh36_7 2.196963 1_455
B6_3 Rh36_3 2.196963 1_555
B6_3 Rh22_7 2.204612 1_455
B6_3 Rh22_3 2.204612 1_555
B6_3 Rh2_7 2.235395 1_455
B6_3 Rh2_3 2.235395 1_555
B6_3 Mg18_3 2.621374 1_555
B6_3 Mg9_1 2.661219 1_555
B6_4 Rh36_0 2.196963 1_555
B6_4 Rh36_4 2.196963 1_555
B6_4 Rh22_0 2.204612 1_555
B6_4 Rh22_4 2.204612 1_555
B6_4 Rh2_0 2.235395 1_555
B6_4 Rh2_4 2.235395 1_555
B6_4 Mg18_4 2.621374 1_555
B6_4 Mg9_6 2.661219 1_545
B6_5 Rh36_1 2.196963 1_555
B6_5 Rh36_5 2.196963 1_555
B6_5 Rh22_1 2.204612 1_555
B6_5 Rh22_5 2.204612 1_555
B6_5 Rh2_1 2.235395 1_555
B6_5 Rh2_5 2.235395 1_555
B6_5 Mg18_5 2.621374 1_555
B6_5 Mg9_7 2.661219 1_545
B6_6 Rh36_2 2.196963 1_555
B6_6 Rh36_6 2.196963 1_555
B6_6 Rh22_2 2.204612 1_555
B6_6 Rh22_6 2.204612 1_555
B6_6 Rh2_2 2.235395 1_555
B6_6 Rh2_6 2.235395 1_555
B6_6 Mg18_6 2.621374 1_555
B6_6 Mg9_4 2.661219 1_555
B6_7 Rh36_3 2.196963 1_555
B6_7 Rh36_7 2.196963 1_555
B6_7 Rh22_3 2.204612 1_555
B6_7 Rh22_7 2.204612 1_555
B6_7 Rh2_3 2.235395 1_555
B6_7 Rh2_7 2.235395 1_555
B6_7 Mg18_7 2.621374 1_555
B6_7 Mg9_5 2.661219 1_555
B7_0 Rh37_4 2.196963 1_455
B7_0 Rh37_0 2.196963 1_555
B7_0 Rh23_4 2.204612 1_455
B7_0 Rh23_0 2.204612 1_555
B7_0 Rh3_4 2.235395 1_455
B7_0 Rh3_0 2.235395 1_555
B7_0 Mg19_0 2.621374 1_555
B7_0 Mg8_2 2.661219 1_555
B7_1 Rh37_5 2.196963 1_455
B7_1 Rh37_1 2.196963 1_555
B7_1 Rh23_5 2.204612 1_455
B7_1 Rh23_1 2.204612 1_555
B7_1 Rh3_5 2.235395 1_455
B7_1 Rh3_1 2.235395 1_555
B7_1 Mg19_1 2.621374 1_555
B7_1 Mg8_3 2.661219 1_555
B7_2 Rh37_6 2.196963 1_455
B7_2 Rh37_2 2.196963 1_555
B7_2 Rh23_6 2.204612 1_455
B7_2 Rh23_2 2.204612 1_555
B7_2 Rh3_6 2.235395 1_455
B7_2 Rh3_2 2.235395 1_555
B7_2 Mg19_2 2.621374 1_555
B7_2 Mg8_0 2.661219 1_565
B7_3 Rh37_7 2.196963 1_455
B7_3 Rh37_3 2.196963 1_555
B7_3 Rh23_7 2.204612 1_455
B7_3 Rh23_3 2.204612 1_555
B7_3 Rh3_7 2.235395 1_455
B7_3 Rh3_3 2.235395 1_555
B7_3 Mg19_3 2.621374 1_555
B7_3 Mg8_1 2.661219 1_565
B7_4 Rh37_0 2.196963 1_555
B7_4 Rh37_4 2.196963 1_555
B7_4 Rh23_0 2.204612 1_555
B7_4 Rh23_4 2.204612 1_555
B7_4 Rh3_0 2.235395 1_555
B7_4 Rh3_4 2.235395 1_555
B7_4 Mg19_4 2.621374 1_555
B7_4 Mg8_6 2.661219 1_555
B7_5 Rh37_1 2.196963 1_555
B7_5 Rh37_5 2.196963 1_555
B7_5 Rh23_1 2.204612 1_555
B7_5 Rh23_5 2.204612 1_555
B7_5 Rh3_1 2.235395 1_555
B7_5 Rh3_5 2.235395 1_555
B7_5 Mg19_5 2.621374 1_555
B7_5 Mg8_7 2.661219 1_555
B7_6 Rh37_2 2.196963 1_555
B7_6 Rh37_6 2.196963 1_555
B7_6 Rh23_2 2.204612 1_555
B7_6 Rh23_6 2.204612 1_555
B7_6 Rh3_2 2.235395 1_555
B7_6 Rh3_6 2.235395 1_555
B7_6 Mg19_6 2.621374 1_555
B7_6 Mg8_4 2.661219 1_565
B7_7 Rh37_3 2.196963 1_555
B7_7 Rh37_7 2.196963 1_555
B7_7 Rh23_3 2.204612 1_555
B7_7 Rh23_7 2.204612 1_555
B7_7 Rh3_3 2.235395 1_555
B7_7 Rh3_7 2.235395 1_555
B7_7 Mg19_7 2.621374 1_555
B7_7 Mg8_5 2.661219 1_565
B8_0 Rh16_4 2.203094 1_455
B8_0 Rh16_0 2.203094 1_555
B8_0 Rh0_4 2.226826 1_455
B8_0 Rh0_0 2.226826 1_555
B8_0 Rh4_4 2.231777 1_455
B8_0 Rh4_0 2.231777 1_555
B8_0 Li0_0 2.419443 1_555
B8_0 Mg16_0 2.811035 1_555
B8_0 Mg4_0 2.826049 1_555
B8_1 Rh16_5 2.203094 1_455
B8_1 Rh16_1 2.203094 1_555
B8_1 Rh0_5 2.226826 1_455
B8_1 Rh0_1 2.226826 1_555
B8_1 Rh4_5 2.231777 1_455
B8_1 Rh4_1 2.231777 1_555
B8_1 Li0_1 2.419443 1_555
B8_1 Mg16_1 2.811035 1_555
B8_1 Mg4_1 2.826049 1_555
B8_2 Rh16_6 2.203094 1_455
B8_2 Rh16_2 2.203094 1_555
B8_2 Rh0_2 2.226826 1_555
B8_2 Rh0_6 2.226826 1_455
B8_2 Rh4_6 2.231777 1_455
B8_2 Rh4_2 2.231777 1_555
B8_2 Li0_2 2.419443 1_555
B8_2 Mg16_2 2.811035 1_555
B8_2 Mg4_2 2.826049 1_555
B8_3 Rh16_7 2.203094 1_455
B8_3 Rh16_3 2.203094 1_555
B8_3 Rh0_7 2.226826 1_455
B8_3 Rh0_3 2.226826 1_555
B8_3 Rh4_7 2.231777 1_455
B8_3 Rh4_3 2.231777 1_555
B8_3 Li0_3 2.419443 1_555
B8_3 Mg16_3 2.811035 1_555
B8_3 Mg4_3 2.826049 1_555
B8_4 Rh16_0 2.203094 1_555
B8_4 Rh16_4 2.203094 1_555
B8_4 Rh0_0 2.226826 1_555
B8_4 Rh0_4 2.226826 1_555
B8_4 Rh4_0 2.231777 1_555
B8_4 Rh4_4 2.231777 1_555
B8_4 Li0_4 2.419443 1_555
B8_4 Mg16_4 2.811035 1_555
B8_4 Mg4_4 2.826049 1_555
B8_5 Rh16_1 2.203094 1_555
B8_5 Rh16_5 2.203094 1_555
B8_5 Rh0_1 2.226826 1_555
B8_5 Rh0_5 2.226826 1_555
B8_5 Rh4_1 2.231777 1_555
B8_5 Rh4_5 2.231777 1_555
B8_5 Li0_5 2.419443 1_555
B8_5 Mg16_5 2.811035 1_555
B8_5 Mg4_5 2.826049 1_555
B8_6 Rh16_2 2.203094 1_555
B8_6 Rh16_6 2.203094 1_555
B8_6 Rh0_2 2.226826 1_555
B8_6 Rh0_6 2.226826 1_555
B8_6 Rh4_2 2.231777 1_555
B8_6 Rh4_6 2.231777 1_555
B8_6 Li0_6 2.419443 1_555
B8_6 Mg16_6 2.811035 1_555
B8_6 Mg4_6 2.826049 1_555
B8_7 Rh16_3 2.203094 1_555
B8_7 Rh16_7 2.203094 1_555
B8_7 Rh0_3 2.226826 1_555
B8_7 Rh0_7 2.226826 1_555
B8_7 Rh4_3 2.231777 1_555
B8_7 Rh4_7 2.231777 1_555
B8_7 Li0_7 2.419443 1_555
B8_7 Mg16_7 2.811035 1_555
B8_7 Mg4_7 2.826049 1_555
B9_0 Rh17_4 2.203094 1_455
B9_0 Rh17_0 2.203094 1_555
B9_0 Rh1_4 2.226826 1_455
B9_0 Rh1_0 2.226826 1_555
B9_0 Rh5_4 2.231777 1_455
B9_0 Rh5_0 2.231777 1_555
B9_0 Li1_0 2.419443 1_555
B9_0 Mg17_0 2.811035 1_555
B9_0 Mg5_0 2.826049 1_555
B9_1 Rh17_5 2.203094 1_455
B9_1 Rh17_1 2.203094 1_555
B9_1 Rh1_5 2.226826 1_455
B9_1 Rh1_1 2.226826 1_555
B9_1 Rh5_5 2.231777 1_455
B9_1 Rh5_1 2.231777 1_555
B9_1 Li1_1 2.419443 1_555
B9_1 Mg17_1 2.811035 1_555
B9_1 Mg5_1 2.826049 1_555
B9_2 Rh17_6 2.203094 1_455
B9_2 Rh17_2 2.203094 1_555
B9_2 Rh1_6 2.226826 1_455
B9_2 Rh1_2 2.226826 1_555
B9_2 Rh5_6 2.231777 1_455
B9_2 Rh5_2 2.231777 1_555
B9_2 Li1_2 2.419443 1_555
B9_2 Mg17_2 2.811035 1_555
B9_2 Mg5_2 2.826049 1_555
B9_3 Rh17_7 2.203094 1_455
B9_3 Rh17_3 2.203094 1_555
B9_3 Rh1_7 2.226826 1_455
B9_3 Rh1_3 2.226826 1_555
B9_3 Rh5_7 2.231777 1_455
B9_3 Rh5_3 2.231777 1_555
B9_3 Li1_3 2.419443 1_555
B9_3 Mg17_3 2.811035 1_555
B9_3 Mg5_3 2.826049 1_555
B9_4 Rh17_0 2.203094 1_555
B9_4 Rh17_4 2.203094 1_555
B9_4 Rh1_0 2.226826 1_555
B9_4 Rh1_4 2.226826 1_555
B9_4 Rh5_0 2.231777 1_555
B9_4 Rh5_4 2.231777 1_555
B9_4 Li1_4 2.419443 1_555
B9_4 Mg17_4 2.811035 1_555
B9_4 Mg5_4 2.826049 1_555
B9_5 Rh17_1 2.203094 1_555
B9_5 Rh17_5 2.203094 1_555
B9_5 Rh1_1 2.226826 1_555
B9_5 Rh1_5 2.226826 1_555
B9_5 Rh5_1 2.231777 1_555
B9_5 Rh5_5 2.231777 1_555
B9_5 Li1_5 2.419443 1_555
B9_5 Mg17_5 2.811035 1_555
B9_5 Mg5_5 2.826049 1_555
B9_6 Rh17_2 2.203094 1_555
B9_6 Rh17_6 2.203094 1_555
B9_6 Rh1_2 2.226826 1_555
B9_6 Rh1_6 2.226826 1_555
B9_6 Rh5_2 2.231777 1_555
B9_6 Rh5_6 2.231777 1_555
B9_6 Li1_6 2.419443 1_555
B9_6 Mg17_6 2.811035 1_555
B9_6 Mg5_6 2.826049 1_555
B9_7 Rh17_3 2.203094 1_555
B9_7 Rh17_7 2.203094 1_555
B9_7 Rh1_3 2.226826 1_555
B9_7 Rh1_7 2.226826 1_555
B9_7 Rh5_3 2.231777 1_555
B9_7 Rh5_7 2.231777 1_555
B9_7 Li1_7 2.419443 1_555
B9_7 Mg17_7 2.811035 1_555
B9_7 Mg5_7 2.826049 1_555
B10_0 Rh18_4 2.203094 1_455
B10_0 Rh18_0 2.203094 1_555
B10_0 Rh2_4 2.226826 1_455
B10_0 Rh2_0 2.226826 1_555
B10_0 Rh6_4 2.231777 1_455
B10_0 Rh6_0 2.231777 1_555
B10_0 Li2_0 2.419443 1_555
B10_0 Mg18_0 2.811035 1_555
B10_0 Mg6_0 2.826049 1_555
B10_1 Rh18_5 2.203094 1_455
B10_1 Rh18_1 2.203094 1_555
B10_1 Rh2_1 2.226826 1_555
B10_1 Rh2_5 2.226826 1_455
B10_1 Rh6_5 2.231777 1_455
B10_1 Rh6_1 2.231777 1_555
B10_1 Li2_1 2.419443 1_555
B10_1 Mg18_1 2.811035 1_555
B10_1 Mg6_1 2.826049 1_555
B10_2 Rh18_6 2.203094 1_455
B10_2 Rh18_2 2.203094 1_555
B10_2 Rh2_6 2.226826 1_455
B10_2 Rh2_2 2.226826 1_555
B10_2 Rh6_6 2.231777 1_455
B10_2 Rh6_2 2.231777 1_555
B10_2 Li2_2 2.419443 1_555
B10_2 Mg18_2 2.811035 1_555
B10_2 Mg6_2 2.826049 1_555
B10_3 Rh18_7 2.203094 1_455
B10_3 Rh18_3 2.203094 1_555
B10_3 Rh2_7 2.226826 1_455
B10_3 Rh2_3 2.226826 1_555
B10_3 Rh6_7 2.231777 1_455
B10_3 Rh6_3 2.231777 1_555
B10_3 Li2_3 2.419443 1_555
B10_3 Mg18_3 2.811035 1_555
B10_3 Mg6_3 2.826049 1_555
B10_4 Rh18_0 2.203094 1_555
B10_4 Rh18_4 2.203094 1_555
B10_4 Rh2_0 2.226826 1_555
B10_4 Rh2_4 2.226826 1_555
B10_4 Rh6_0 2.231777 1_555
B10_4 Rh6_4 2.231777 1_555
B10_4 Li2_4 2.419443 1_555
B10_4 Mg18_4 2.811035 1_555
B10_4 Mg6_4 2.826049 1_555
B10_5 Rh18_1 2.203094 1_555
B10_5 Rh18_5 2.203094 1_555
B10_5 Rh2_1 2.226826 1_555
B10_5 Rh2_5 2.226826 1_555
B10_5 Rh6_1 2.231777 1_555
B10_5 Rh6_5 2.231777 1_555
B10_5 Li2_5 2.419443 1_555
B10_5 Mg18_5 2.811035 1_555
B10_5 Mg6_5 2.826049 1_555
B10_6 Rh18_2 2.203094 1_555
B10_6 Rh18_6 2.203094 1_555
B10_6 Rh2_2 2.226826 1_555
B10_6 Rh2_6 2.226826 1_555
B10_6 Rh6_2 2.231777 1_555
B10_6 Rh6_6 2.231777 1_555
B10_6 Li2_6 2.419443 1_555
B10_6 Mg18_6 2.811035 1_555
B10_6 Mg6_6 2.826049 1_555
B10_7 Rh18_3 2.203094 1_555
B10_7 Rh18_7 2.203094 1_555
B10_7 Rh2_3 2.226826 1_555
B10_7 Rh2_7 2.226826 1_555
B10_7 Rh6_3 2.231777 1_555
B10_7 Rh6_7 2.231777 1_555
B10_7 Li2_7 2.419443 1_555
B10_7 Mg18_7 2.811035 1_555
B10_7 Mg6_7 2.826049 1_555
B11_0 Rh19_4 2.203094 1_455
B11_0 Rh19_0 2.203094 1_555
B11_0 Rh3_4 2.226826 1_455
B11_0 Rh3_0 2.226826 1_555
B11_0 Rh7_4 2.231777 1_455
B11_0 Rh7_0 2.231777 1_555
B11_0 Li3_0 2.419443 1_555
B11_0 Mg19_0 2.811035 1_555
B11_0 Mg7_0 2.826049 1_555
B11_1 Rh19_5 2.203094 1_455
B11_1 Rh19_1 2.203094 1_555
B11_1 Rh3_5 2.226826 1_455
B11_1 Rh3_1 2.226826 1_555
B11_1 Rh7_1 2.231777 1_555
B11_1 Rh7_5 2.231777 1_455
B11_1 Li3_1 2.419443 1_555
B11_1 Mg19_1 2.811035 1_555
B11_1 Mg7_1 2.826049 1_555
B11_2 Rh19_6 2.203094 1_455
B11_2 Rh19_2 2.203094 1_555
B11_2 Rh3_6 2.226826 1_455
B11_2 Rh3_2 2.226826 1_555
B11_2 Rh7_6 2.231777 1_455
B11_2 Rh7_2 2.231777 1_555
B11_2 Li3_2 2.419443 1_555
B11_2 Mg19_2 2.811035 1_555
B11_2 Mg7_2 2.826049 1_555
B11_3 Rh19_7 2.203094 1_455
B11_3 Rh19_3 2.203094 1_555
B11_3 Rh3_7 2.226826 1_455
B11_3 Rh3_3 2.226826 1_555
B11_3 Rh7_3 2.231777 1_555
B11_3 Rh7_7 2.231777 1_455
B11_3 Li3_3 2.419443 1_555
B11_3 Mg19_3 2.811035 1_555
B11_3 Mg7_3 2.826049 1_555
B11_4 Rh19_0 2.203094 1_555
B11_4 Rh19_4 2.203094 1_555
B11_4 Rh3_0 2.226826 1_555
B11_4 Rh3_4 2.226826 1_555
B11_4 Rh7_0 2.231777 1_555
B11_4 Rh7_4 2.231777 1_555
B11_4 Li3_4 2.419443 1_555
B11_4 Mg19_4 2.811035 1_555
B11_4 Mg7_4 2.826049 1_555
B11_5 Rh19_1 2.203094 1_555
B11_5 Rh19_5 2.203094 1_555
B11_5 Rh3_1 2.226826 1_555
B11_5 Rh3_5 2.226826 1_555
B11_5 Rh7_1 2.231777 1_555
B11_5 Rh7_5 2.231777 1_555
B11_5 Li3_5 2.419443 1_555
B11_5 Mg19_5 2.811035 1_555
B11_5 Mg7_5 2.826049 1_555
B11_6 Rh19_2 2.203094 1_555
B11_6 Rh19_6 2.203094 1_555
B11_6 Rh3_2 2.226826 1_555
B11_6 Rh3_6 2.226826 1_555
B11_6 Rh7_2 2.231777 1_555
B11_6 Rh7_6 2.231777 1_555
B11_6 Li3_6 2.419443 1_555
B11_6 Mg19_6 2.811035 1_555
B11_6 Mg7_6 2.826049 1_555
B11_7 Rh19_3 2.203094 1_555
B11_7 Rh19_7 2.203094 1_555
B11_7 Rh3_3 2.226826 1_555
B11_7 Rh3_7 2.226826 1_555
B11_7 Rh7_3 2.231777 1_555
B11_7 Rh7_7 2.231777 1_555
B11_7 Li3_7 2.419443 1_555
B11_7 Mg19_7 2.811035 1_555
B11_7 Mg7_7 2.826049 1_555
B12_0 Rh7_4 2.203636 1_455
B12_0 Rh7_0 2.203636 1_555
B12_0 Rh12_4 2.203815 1_455
B12_0 Rh12_0 2.203815 1_555
B12_0 Rh30_4 2.213742 1_455
B12_0 Rh30_0 2.213742 1_555
B12_0 Li3_0 2.427246 1_555
B12_0 Mg12_0 2.736394 1_555
B12_1 Rh7_5 2.203636 1_455
B12_1 Rh7_1 2.203636 1_555
B12_1 Rh12_5 2.203815 1_455
B12_1 Rh12_1 2.203815 1_555
B12_1 Rh30_5 2.213742 1_455
B12_1 Rh30_1 2.213742 1_555
B12_1 Li3_1 2.427246 1_555
B12_1 Mg12_1 2.736394 1_555
B12_2 Rh7_2 2.203636 1_555
B12_2 Rh7_6 2.203636 1_455
B12_2 Rh12_6 2.203815 1_455
B12_2 Rh12_2 2.203815 1_555
B12_2 Rh30_6 2.213742 1_455
B12_2 Rh30_2 2.213742 1_555
B12_2 Li3_2 2.427246 1_555
B12_2 Mg12_2 2.736394 1_555
B12_3 Rh7_7 2.203636 1_455
B12_3 Rh7_3 2.203636 1_555
B12_3 Rh12_7 2.203815 1_455
B12_3 Rh12_3 2.203815 1_555
B12_3 Rh30_7 2.213742 1_455
B12_3 Rh30_3 2.213742 1_555
B12_3 Li3_3 2.427246 1_555
B12_3 Mg12_3 2.736394 1_555
B12_4 Rh7_0 2.203636 1_555
B12_4 Rh7_4 2.203636 1_555
B12_4 Rh12_0 2.203815 1_555
B12_4 Rh12_4 2.203815 1_555
B12_4 Rh30_0 2.213742 1_555
B12_4 Rh30_4 2.213742 1_555
B12_4 Li3_4 2.427246 1_555
B12_4 Mg12_4 2.736394 1_555
B12_5 Rh7_1 2.203636 1_555
B12_5 Rh7_5 2.203636 1_555
B12_5 Rh12_1 2.203815 1_555
B12_5 Rh12_5 2.203815 1_555
B12_5 Rh30_1 2.213742 1_555
B12_5 Rh30_5 2.213742 1_555
B12_5 Li3_5 2.427246 1_555
B12_5 Mg12_5 2.736394 1_555
B12_6 Rh7_2 2.203636 1_555
B12_6 Rh7_6 2.203636 1_555
B12_6 Rh12_2 2.203815 1_555
B12_6 Rh12_6 2.203815 1_555
B12_6 Rh30_2 2.213742 1_555
B12_6 Rh30_6 2.213742 1_555
B12_6 Li3_6 2.427246 1_555
B12_6 Mg12_6 2.736394 1_555
B12_7 Rh7_3 2.203636 1_555
B12_7 Rh7_7 2.203636 1_555
B12_7 Rh12_3 2.203815 1_555
B12_7 Rh12_7 2.203815 1_555
B12_7 Rh30_3 2.213742 1_555
B12_7 Rh30_7 2.213742 1_555
B12_7 Li3_7 2.427246 1_555
B12_7 Mg12_7 2.736394 1_555
B13_0 Rh6_4 2.203636 1_455
B13_0 Rh6_0 2.203636 1_555
B13_0 Rh13_4 2.203815 1_455
B13_0 Rh13_0 2.203815 1_555
B13_0 Rh31_4 2.213742 1_455
B13_0 Rh31_0 2.213742 1_555
B13_0 Li2_0 2.427246 1_555
B13_0 Mg13_0 2.736394 1_555
B13_1 Rh6_5 2.203636 1_455
B13_1 Rh6_1 2.203636 1_555
B13_1 Rh13_5 2.203815 1_455
B13_1 Rh13_1 2.203815 1_555
B13_1 Rh31_5 2.213742 1_455
B13_1 Rh31_1 2.213742 1_555
B13_1 Li2_1 2.427246 1_555
B13_1 Mg13_1 2.736394 1_555
B13_2 Rh6_6 2.203636 1_455
B13_2 Rh6_2 2.203636 1_555
B13_2 Rh13_6 2.203815 1_455
B13_2 Rh13_2 2.203815 1_555
B13_2 Rh31_6 2.213742 1_455
B13_2 Rh31_2 2.213742 1_555
B13_2 Li2_2 2.427246 1_555
B13_2 Mg13_2 2.736394 1_555
B13_3 Rh6_7 2.203636 1_455
B13_3 Rh6_3 2.203636 1_555
B13_3 Rh13_7 2.203815 1_455
B13_3 Rh13_3 2.203815 1_555
B13_3 Rh31_7 2.213742 1_455
B13_3 Rh31_3 2.213742 1_555
B13_3 Li2_3 2.427246 1_555
B13_3 Mg13_3 2.736394 1_555
B13_4 Rh6_0 2.203636 1_555
B13_4 Rh6_4 2.203636 1_555
B13_4 Rh13_0 2.203815 1_555
B13_4 Rh13_4 2.203815 1_555
B13_4 Rh31_0 2.213742 1_555
B13_4 Rh31_4 2.213742 1_555
B13_4 Li2_4 2.427246 1_555
B13_4 Mg13_4 2.736394 1_555
B13_5 Rh6_1 2.203636 1_555
B13_5 Rh6_5 2.203636 1_555
B13_5 Rh13_5 2.203815 1_555
B13_5 Rh13_1 2.203815 1_555
B13_5 Rh31_1 2.213742 1_555
B13_5 Rh31_5 2.213742 1_555
B13_5 Li2_5 2.427246 1_555
B13_5 Mg13_5 2.736394 1_555
B13_6 Rh6_2 2.203636 1_555
B13_6 Rh6_6 2.203636 1_555
B13_6 Rh13_2 2.203815 1_555
B13_6 Rh13_6 2.203815 1_555
B13_6 Rh31_2 2.213742 1_555
B13_6 Rh31_6 2.213742 1_555
B13_6 Li2_6 2.427246 1_555
B13_6 Mg13_6 2.736394 1_555
B13_7 Rh6_3 2.203636 1_555
B13_7 Rh6_7 2.203636 1_555
B13_7 Rh13_3 2.203815 1_555
B13_7 Rh13_7 2.203815 1_555
B13_7 Rh31_3 2.213742 1_555
B13_7 Rh31_7 2.213742 1_555
B13_7 Li2_7 2.427246 1_555
B13_7 Mg13_7 2.736394 1_555
B14_0 Rh5_6 2.203636 1_445
B14_0 Rh5_2 2.203636 1_545
B14_0 Rh14_4 2.203815 1_455
B14_0 Rh14_0 2.203815 1_555
B14_0 Rh32_4 2.213742 1_455
B14_0 Rh32_0 2.213742 1_555
B14_0 Li1_2 2.427246 1_545
B14_0 Mg14_0 2.736394 1_555
B14_1 Rh5_7 2.203636 1_445
B14_1 Rh5_3 2.203636 1_545
B14_1 Rh14_5 2.203815 1_455
B14_1 Rh14_1 2.203815 1_555
B14_1 Rh32_5 2.213742 1_455
B14_1 Rh32_1 2.213742 1_555
B14_1 Li1_3 2.427246 1_545
B14_1 Mg14_1 2.736394 1_555
B14_2 Rh5_4 2.203636 1_455
B14_2 Rh5_0 2.203636 1_555
B14_2 Rh14_6 2.203815 1_455
B14_2 Rh14_2 2.203815 1_555
B14_2 Rh32_6 2.213742 1_455
B14_2 Rh32_2 2.213742 1_555
B14_2 Li1_0 2.427246 1_555
B14_2 Mg14_2 2.736394 1_555
B14_3 Rh5_5 2.203636 1_455
B14_3 Rh5_1 2.203636 1_555
B14_3 Rh14_7 2.203815 1_455
B14_3 Rh14_3 2.203815 1_555
B14_3 Rh32_7 2.213742 1_455
B14_3 Rh32_3 2.213742 1_555
B14_3 Li1_1 2.427246 1_555
B14_3 Mg14_3 2.736394 1_555
B14_4 Rh5_2 2.203636 1_545
B14_4 Rh5_6 2.203636 1_545
B14_4 Rh14_0 2.203815 1_555
B14_4 Rh14_4 2.203815 1_555
B14_4 Rh32_0 2.213742 1_555
B14_4 Rh32_4 2.213742 1_555
B14_4 Li1_6 2.427246 1_545
B14_4 Mg14_4 2.736394 1_555
B14_5 Rh5_3 2.203636 1_545
B14_5 Rh5_7 2.203636 1_545
B14_5 Rh14_1 2.203815 1_555
B14_5 Rh14_5 2.203815 1_555
B14_5 Rh32_1 2.213742 1_555
B14_5 Rh32_5 2.213742 1_555
B14_5 Li1_7 2.427246 1_545
B14_5 Mg14_5 2.736394 1_555
B14_6 Rh5_0 2.203636 1_555
B14_6 Rh5_4 2.203636 1_555
B14_6 Rh14_2 2.203815 1_555
B14_6 Rh14_6 2.203815 1_555
B14_6 Rh32_2 2.213742 1_555
B14_6 Rh32_6 2.213742 1_555
B14_6 Li1_4 2.427246 1_555
B14_6 Mg14_6 2.736394 1_555
B14_7 Rh5_1 2.203636 1_555
B14_7 Rh5_5 2.203636 1_555
B14_7 Rh14_3 2.203815 1_555
B14_7 Rh14_7 2.203815 1_555
B14_7 Rh32_3 2.213742 1_555
B14_7 Rh32_7 2.213742 1_555
B14_7 Li1_5 2.427246 1_555
B14_7 Mg14_7 2.736394 1_555
B15_0 Rh4_6 2.203636 1_455
B15_0 Rh4_2 2.203636 1_555
B15_0 Rh15_4 2.203815 1_455
B15_0 Rh15_0 2.203815 1_555
B15_0 Rh33_4 2.213742 1_455
B15_0 Rh33_0 2.213742 1_555
B15_0 Li0_2 2.427246 1_555
B15_0 Mg15_0 2.736394 1_555
B15_1 Rh4_3 2.203636 1_555
B15_1 Rh4_7 2.203636 1_455
B15_1 Rh15_5 2.203815 1_455
B15_1 Rh15_1 2.203815 1_555
B15_1 Rh33_5 2.213742 1_455
B15_1 Rh33_1 2.213742 1_555
B15_1 Li0_3 2.427246 1_555
B15_1 Mg15_1 2.736394 1_555
B15_2 Rh4_4 2.203636 1_465
B15_2 Rh4_0 2.203636 1_565
B15_2 Rh15_6 2.203815 1_455
B15_2 Rh15_2 2.203815 1_555
B15_2 Rh33_2 2.213742 1_555
B15_2 Rh33_6 2.213742 1_455
B15_2 Li0_0 2.427246 1_565
B15_2 Mg15_2 2.736394 1_555
B15_3 Rh4_5 2.203636 1_465
B15_3 Rh4_1 2.203636 1_565
B15_3 Rh15_7 2.203815 1_455
B15_3 Rh15_3 2.203815 1_555
B15_3 Rh33_7 2.213742 1_455
B15_3 Rh33_3 2.213742 1_555
B15_3 Li0_1 2.427246 1_565
B15_3 Mg15_3 2.736394 1_555
B15_4 Rh4_2 2.203636 1_555
B15_4 Rh4_6 2.203636 1_555
B15_4 Rh15_0 2.203815 1_555
B15_4 Rh15_4 2.203815 1_555
B15_4 Rh33_0 2.213742 1_555
B15_4 Rh33_4 2.213742 1_555
B15_4 Li0_6 2.427246 1_555
B15_4 Mg15_4 2.736394 1_555
B15_5 Rh4_3 2.203636 1_555
B15_5 Rh4_7 2.203636 1_555
B15_5 Rh15_1 2.203815 1_555
B15_5 Rh15_5 2.203815 1_555
B15_5 Rh33_1 2.213742 1_555
B15_5 Rh33_5 2.213742 1_555
B15_5 Li0_7 2.427246 1_555
B15_5 Mg15_5 2.736394 1_555
B15_6 Rh4_0 2.203636 1_565
B15_6 Rh4_4 2.203636 1_565
B15_6 Rh15_2 2.203815 1_555
B15_6 Rh15_6 2.203815 1_555
B15_6 Rh33_2 2.213742 1_555
B15_6 Rh33_6 2.213742 1_555
B15_6 Li0_4 2.427246 1_565
B15_6 Mg15_6 2.736394 1_555
B15_7 Rh4_1 2.203636 1_565
B15_7 Rh4_5 2.203636 1_565
B15_7 Rh15_3 2.203815 1_555
B15_7 Rh15_7 2.203815 1_555
B15_7 Rh33_3 2.213742 1_555
B15_7 Rh33_7 2.213742 1_555
B15_7 Li0_5 2.427246 1_565
B15_7 Mg15_7 2.736394 1_555
B16_0 Rh8_4 2.180472 1_455
B16_0 Rh8_0 2.180472 1_555
B16_0 Rh24_4 2.214996 1_455
B16_0 Rh24_0 2.214996 1_555
B16_0 Rh23_6 2.219008 1_445
B16_0 Rh23_2 2.219008 1_545
B16_0 Mg6_0 2.719678 1_555
B16_1 Rh8_5 2.180472 1_455
B16_1 Rh8_1 2.180472 1_555
B16_1 Rh24_5 2.214996 1_455
B16_1 Rh24_1 2.214996 1_555
B16_1 Rh23_7 2.219008 1_445
B16_1 Rh23_3 2.219008 1_545
B16_1 Mg6_1 2.719678 1_555
B16_2 Rh8_6 2.180472 1_455
B16_2 Rh8_2 2.180472 1_555
B16_2 Rh24_6 2.214996 1_455
B16_2 Rh24_2 2.214996 1_555
B16_2 Rh23_4 2.219008 1_455
B16_2 Rh23_0 2.219008 1_555
B16_2 Mg6_2 2.719678 1_555
B16_3 Rh8_7 2.180472 1_455
B16_3 Rh8_3 2.180472 1_555
B16_3 Rh24_7 2.214996 1_455
B16_3 Rh24_3 2.214996 1_555
B16_3 Rh23_5 2.219008 1_455
B16_3 Rh23_1 2.219008 1_555
B16_3 Mg6_3 2.719678 1_555
B16_4 Rh8_0 2.180472 1_555
B16_4 Rh8_4 2.180472 1_555
B16_4 Rh24_0 2.214996 1_555
B16_4 Rh24_4 2.214996 1_555
B16_4 Rh23_2 2.219008 1_545
B16_4 Rh23_6 2.219008 1_545
B16_4 Mg6_4 2.719678 1_555
B16_5 Rh8_1 2.180472 1_555
B16_5 Rh8_5 2.180472 1_555
B16_5 Rh24_1 2.214996 1_555
B16_5 Rh24_5 2.214996 1_555
B16_5 Rh23_3 2.219008 1_545
B16_5 Rh23_7 2.219008 1_545
B16_5 Mg6_5 2.719678 1_555
B16_6 Rh8_2 2.180472 1_555
B16_6 Rh8_6 2.180472 1_555
B16_6 Rh24_2 2.214996 1_555
B16_6 Rh24_6 2.214996 1_555
B16_6 Rh23_0 2.219008 1_555
B16_6 Rh23_4 2.219008 1_555
B16_6 Mg6_6 2.719678 1_555
B16_7 Rh8_3 2.180472 1_555
B16_7 Rh8_7 2.180472 1_555
B16_7 Rh24_3 2.214996 1_555
B16_7 Rh24_7 2.214996 1_555
B16_7 Rh23_1 2.219008 1_555
B16_7 Rh23_5 2.219008 1_555
B16_7 Mg6_7 2.719678 1_555
B17_0 Rh9_4 2.180472 1_455
B17_0 Rh9_0 2.180472 1_555
B17_0 Rh24_6 2.214996 1_455
B17_0 Rh24_2 2.214996 1_555
B17_0 Rh22_6 2.219008 1_455
B17_0 Rh22_2 2.219008 1_555
B17_0 Mg7_0 2.719678 1_555
B17_1 Rh9_5 2.180472 1_455
B17_1 Rh9_1 2.180472 1_555
B17_1 Rh24_7 2.214996 1_455
B17_1 Rh24_3 2.214996 1_555
B17_1 Rh22_7 2.219008 1_455
B17_1 Rh22_3 2.219008 1_555
B17_1 Mg7_1 2.719678 1_555
B17_2 Rh9_6 2.180472 1_455
B17_2 Rh9_2 2.180472 1_555
B17_2 Rh24_4 2.214996 1_465
B17_2 Rh24_0 2.214996 1_565
B17_2 Rh22_4 2.219008 1_465
B17_2 Rh22_0 2.219008 1_565
B17_2 Mg7_2 2.719678 1_555
B17_3 Rh9_7 2.180472 1_455
B17_3 Rh9_3 2.180472 1_555
B17_3 Rh24_5 2.214996 1_465
B17_3 Rh24_1 2.214996 1_565
B17_3 Rh22_5 2.219008 1_465
B17_3 Rh22_1 2.219008 1_565
B17_3 Mg7_3 2.719678 1_555
B17_4 Rh9_0 2.180472 1_555
B17_4 Rh9_4 2.180472 1_555
B17_4 Rh24_2 2.214996 1_555
B17_4 Rh24_6 2.214996 1_555
B17_4 Rh22_2 2.219008 1_555
B17_4 Rh22_6 2.219008 1_555
B17_4 Mg7_4 2.719678 1_555
B17_5 Rh9_1 2.180472 1_555
B17_5 Rh9_5 2.180472 1_555
B17_5 Rh24_3 2.214996 1_555
B17_5 Rh24_7 2.214996 1_555
B17_5 Rh22_3 2.219008 1_555
B17_5 Rh22_7 2.219008 1_555
B17_5 Mg7_5 2.719678 1_555
B17_6 Rh9_2 2.180472 1_555
B17_6 Rh9_6 2.180472 1_555
B17_6 Rh24_0 2.214996 1_565
B17_6 Rh24_4 2.214996 1_565
B17_6 Rh22_0 2.219008 1_565
B17_6 Rh22_4 2.219008 1_565
B17_6 Mg7_6 2.719678 1_555
B17_7 Rh9_3 2.180472 1_555
B17_7 Rh9_7 2.180472 1_555
B17_7 Rh24_1 2.214996 1_565
B17_7 Rh24_5 2.214996 1_565
B17_7 Rh22_1 2.219008 1_565
B17_7 Rh22_5 2.219008 1_565
B17_7 Mg7_7 2.719678 1_555
B18_0 Rh10_4 2.180472 1_455
B18_0 Rh10_0 2.180472 1_555
B18_0 Rh25_5 2.214996 1_455
B18_0 Rh25_1 2.214996 1_555
B18_0 Rh21_4 2.219008 1_455
B18_0 Rh21_0 2.219008 1_555
B18_0 Mg4_1 2.719678 1_555
B18_1 Rh10_5 2.180472 1_455
B18_1 Rh10_1 2.180472 1_555
B18_1 Rh25_0 2.214996 1_556
B18_1 Rh25_4 2.214996 1_456
B18_1 Rh21_5 2.219008 1_455
B18_1 Rh21_1 2.219008 1_555
B18_1 Mg4_0 2.719678 1_556
B18_2 Rh10_6 2.180472 1_455
B18_2 Rh10_2 2.180472 1_555
B18_2 Rh25_3 2.214996 1_555
B18_2 Rh25_7 2.214996 1_455
B18_2 Rh21_6 2.219008 1_455
B18_2 Rh21_2 2.219008 1_555
B18_2 Mg4_3 2.719678 1_555
B18_3 Rh10_7 2.180472 1_455
B18_3 Rh10_3 2.180472 1_555
B18_3 Rh25_6 2.214996 1_456
B18_3 Rh25_2 2.214996 1_556
B18_3 Rh21_7 2.219008 1_455
B18_3 Rh21_3 2.219008 1_555
B18_3 Mg4_2 2.719678 1_556
B18_4 Rh10_0 2.180472 1_555
B18_4 Rh10_4 2.180472 1_555
B18_4 Rh25_5 2.214996 1_555
B18_4 Rh25_1 2.214996 1_555
B18_4 Rh21_0 2.219008 1_555
B18_4 Rh21_4 2.219008 1_555
B18_4 Mg4_5 2.719678 1_555
B18_5 Rh10_5 2.180472 1_555
B18_5 Rh10_1 2.180472 1_555
B18_5 Rh25_0 2.214996 1_556
B18_5 Rh25_4 2.214996 1_556
B18_5 Rh21_1 2.219008 1_555
B18_5 Rh21_5 2.219008 1_555
B18_5 Mg4_4 2.719678 1_556
B18_6 Rh10_2 2.180472 1_555
B18_6 Rh10_6 2.180472 1_555
B18_6 Rh25_3 2.214996 1_555
B18_6 Rh25_7 2.214996 1_555
B18_6 Rh21_2 2.219008 1_555
B18_6 Rh21_6 2.219008 1_555
B18_6 Mg4_7 2.719678 1_555
B18_7 Rh10_3 2.180472 1_555
B18_7 Rh10_7 2.180472 1_555
B18_7 Rh25_2 2.214996 1_556
B18_7 Rh25_6 2.214996 1_556
B18_7 Rh21_3 2.219008 1_555
B18_7 Rh21_7 2.219008 1_555
B18_7 Mg4_6 2.719678 1_556
B19_0 Rh11_4 2.180472 1_455
B19_0 Rh11_0 2.180472 1_555
B19_0 Rh25_4 2.214996 1_455
B19_0 Rh25_0 2.214996 1_555
B19_0 Rh20_4 2.219008 1_455
B19_0 Rh20_0 2.219008 1_555
B19_0 Mg5_1 2.719678 1_554
B19_1 Rh11_5 2.180472 1_455
B19_1 Rh11_1 2.180472 1_555
B19_1 Rh25_5 2.214996 1_455
B19_1 Rh25_1 2.214996 1_555
B19_1 Rh20_5 2.219008 1_455
B19_1 Rh20_1 2.219008 1_555
B19_1 Mg5_0 2.719678 1_555
B19_2 Rh11_6 2.180472 1_455
B19_2 Rh11_2 2.180472 1_555
B19_2 Rh25_6 2.214996 1_455
B19_2 Rh25_2 2.214996 1_555
B19_2 Rh20_6 2.219008 1_455
B19_2 Rh20_2 2.219008 1_555
B19_2 Mg5_3 2.719678 1_554
B19_3 Rh11_7 2.180472 1_455
B19_3 Rh11_3 2.180472 1_555
B19_3 Rh25_7 2.214996 1_455
B19_3 Rh25_3 2.214996 1_555
B19_3 Rh20_7 2.219008 1_455
B19_3 Rh20_3 2.219008 1_555
B19_3 Mg5_2 2.719678 1_555
B19_4 Rh11_0 2.180472 1_555
B19_4 Rh11_4 2.180472 1_555
B19_4 Rh25_0 2.214996 1_555
B19_4 Rh25_4 2.214996 1_555
B19_4 Rh20_0 2.219008 1_555
B19_4 Rh20_4 2.219008 1_555
B19_4 Mg5_5 2.719678 1_554
B19_5 Rh11_1 2.180472 1_555
B19_5 Rh11_5 2.180472 1_555
B19_5 Rh25_1 2.214996 1_555
B19_5 Rh25_5 2.214996 1_555
B19_5 Rh20_1 2.219008 1_555
B19_5 Rh20_5 2.219008 1_555
B19_5 Mg5_4 2.719678 1_555
B19_6 Rh11_2 2.180472 1_555
B19_6 Rh11_6 2.180472 1_555
B19_6 Rh25_2 2.214996 1_555
B19_6 Rh25_6 2.214996 1_555
B19_6 Rh20_2 2.219008 1_555
B19_6 Rh20_6 2.219008 1_555
B19_6 Mg5_7 2.719678 1_554
B19_7 Rh11_3 2.180472 1_555
B19_7 Rh11_7 2.180472 1_555
B19_7 Rh25_3 2.214996 1_555
B19_7 Rh25_7 2.214996 1_555
B19_7 Rh20_3 2.219008 1_555
B19_7 Rh20_7 2.219008 1_555
B19_7 Mg5_6 2.719678 1_555
B20_0 Rh12_4 2.206668 1_455
B20_0 Rh12_0 2.206668 1_555
B20_0 Rh18_4 2.211318 1_455
B20_0 Rh18_0 2.211318 1_555
B20_0 Rh8_4 2.260412 1_455
B20_0 Rh8_0 2.260412 1_555
B20_0 Mg6_0 2.697945 1_555
B20_0 Mg12_0 2.773001 1_555
B20_1 Rh12_5 2.206668 1_455
B20_1 Rh12_1 2.206668 1_555
B20_1 Rh18_5 2.211318 1_455
B20_1 Rh18_1 2.211318 1_555
B20_1 Rh8_5 2.260412 1_455
B20_1 Rh8_1 2.260412 1_555
B20_1 Mg6_1 2.697945 1_555
B20_1 Mg12_1 2.773001 1_555
B20_2 Rh12_6 2.206668 1_455
B20_2 Rh12_2 2.206668 1_555
B20_2 Rh18_6 2.211318 1_455
B20_2 Rh18_2 2.211318 1_555
B20_2 Rh8_6 2.260412 1_455
B20_2 Rh8_2 2.260412 1_555
B20_2 Mg6_2 2.697945 1_555
B20_2 Mg12_2 2.773001 1_555
B20_3 Rh12_7 2.206668 1_455
B20_3 Rh12_3 2.206668 1_555
B20_3 Rh18_7 2.211318 1_455
B20_3 Rh18_3 2.211318 1_555
B20_3 Rh8_7 2.260412 1_455
B20_3 Rh8_3 2.260412 1_555
B20_3 Mg6_3 2.697945 1_555
B20_3 Mg12_3 2.773001 1_555
B20_4 Rh12_0 2.206668 1_555
B20_4 Rh12_4 2.206668 1_555
B20_4 Rh18_0 2.211318 1_555
B20_4 Rh18_4 2.211318 1_555
B20_4 Rh8_0 2.260412 1_555
B20_4 Rh8_4 2.260412 1_555
B20_4 Mg6_4 2.697945 1_555
B20_4 Mg12_4 2.773001 1_555
B20_5 Rh12_1 2.206668 1_555
B20_5 Rh12_5 2.206668 1_555
B20_5 Rh18_1 2.211318 1_555
B20_5 Rh18_5 2.211318 1_555
B20_5 Rh8_1 2.260412 1_555
B20_5 Rh8_5 2.260412 1_555
B20_5 Mg6_5 2.697945 1_555
B20_5 Mg12_5 2.773001 1_555
B20_6 Rh12_2 2.206668 1_555
B20_6 Rh12_6 2.206668 1_555
B20_6 Rh18_2 2.211318 1_555
B20_6 Rh18_6 2.211318 1_555
B20_6 Rh8_6 2.260412 1_555
B20_6 Rh8_2 2.260412 1_555
B20_6 Mg6_6 2.697945 1_555
B20_6 Mg12_6 2.773001 1_555
B20_7 Rh12_3 2.206668 1_555
B20_7 Rh12_7 2.206668 1_555
B20_7 Rh18_3 2.211318 1_555
B20_7 Rh18_7 2.211318 1_555
B20_7 Rh8_3 2.260412 1_555
B20_7 Rh8_7 2.260412 1_555
B20_7 Mg6_7 2.697945 1_555
B20_7 Mg12_7 2.773001 1_555
B21_0 Rh13_4 2.206668 1_455
B21_0 Rh13_0 2.206668 1_555
B21_0 Rh19_4 2.211318 1_455
B21_0 Rh19_0 2.211318 1_555
B21_0 Rh9_4 2.260412 1_455
B21_0 Rh9_0 2.260412 1_555
B21_0 Mg7_0 2.697945 1_555
B21_0 Mg13_0 2.773001 1_555
B21_1 Rh13_5 2.206668 1_455
B21_1 Rh13_1 2.206668 1_555
B21_1 Rh19_5 2.211318 1_455
B21_1 Rh19_1 2.211318 1_555
B21_1 Rh9_1 2.260412 1_555
B21_1 Rh9_5 2.260412 1_455
B21_1 Mg7_1 2.697945 1_555
B21_1 Mg13_1 2.773001 1_555
B21_2 Rh13_6 2.206668 1_455
B21_2 Rh13_2 2.206668 1_555
B21_2 Rh19_6 2.211318 1_455
B21_2 Rh19_2 2.211318 1_555
B21_2 Rh9_6 2.260412 1_455
B21_2 Rh9_2 2.260412 1_555
B21_2 Mg7_2 2.697945 1_555
B21_2 Mg13_2 2.773001 1_555
B21_3 Rh13_7 2.206668 1_455
B21_3 Rh13_3 2.206668 1_555
B21_3 Rh19_7 2.211318 1_455
B21_3 Rh19_3 2.211318 1_555
B21_3 Rh9_7 2.260412 1_455
B21_3 Rh9_3 2.260412 1_555
B21_3 Mg7_3 2.697945 1_555
B21_3 Mg13_3 2.773001 1_555
B21_4 Rh13_0 2.206668 1_555
B21_4 Rh13_4 2.206668 1_555
B21_4 Rh19_0 2.211318 1_555
B21_4 Rh19_4 2.211318 1_555
B21_4 Rh9_0 2.260412 1_555
B21_4 Rh9_4 2.260412 1_555
B21_4 Mg7_4 2.697945 1_555
B21_4 Mg13_4 2.773001 1_555
B21_5 Rh13_1 2.206668 1_555
B21_5 Rh13_5 2.206668 1_555
B21_5 Rh19_1 2.211318 1_555
B21_5 Rh19_5 2.211318 1_555
B21_5 Rh9_1 2.260412 1_555
B21_5 Rh9_5 2.260412 1_555
B21_5 Mg7_5 2.697945 1_555
B21_5 Mg13_5 2.773001 1_555
B21_6 Rh13_2 2.206668 1_555
B21_6 Rh13_6 2.206668 1_555
B21_6 Rh19_2 2.211318 1_555
B21_6 Rh19_6 2.211318 1_555
B21_6 Rh9_2 2.260412 1_555
B21_6 Rh9_6 2.260412 1_555
B21_6 Mg7_6 2.697945 1_555
B21_6 Mg13_6 2.773001 1_555
B21_7 Rh13_3 2.206668 1_555
B21_7 Rh13_7 2.206668 1_555
B21_7 Rh19_3 2.211318 1_555
B21_7 Rh19_7 2.211318 1_555
B21_7 Rh9_3 2.260412 1_555
B21_7 Rh9_7 2.260412 1_555
B21_7 Mg7_7 2.697945 1_555
B21_7 Mg13_7 2.773001 1_555
B22_0 Rh14_4 2.206668 1_455
B22_0 Rh14_0 2.206668 1_555
B22_0 Rh16_5 2.211318 1_455
B22_0 Rh16_1 2.211318 1_555
B22_0 Rh10_0 2.260412 1_555
B22_0 Rh10_4 2.260412 1_455
B22_0 Mg4_1 2.697945 1_555
B22_0 Mg14_0 2.773001 1_555
B22_1 Rh14_5 2.206668 1_455
B22_1 Rh14_1 2.206668 1_555
B22_1 Rh16_4 2.211318 1_456
B22_1 Rh16_0 2.211318 1_556
B22_1 Rh10_5 2.260412 1_455
B22_1 Rh10_1 2.260412 1_555
B22_1 Mg4_0 2.697945 1_556
B22_1 Mg14_1 2.773001 1_555
B22_2 Rh14_6 2.206668 1_455
B22_2 Rh14_2 2.206668 1_555
B22_2 Rh16_7 2.211318 1_455
B22_2 Rh16_3 2.211318 1_555
B22_2 Rh10_6 2.260412 1_455
B22_2 Rh10_2 2.260412 1_555
B22_2 Mg4_3 2.697945 1_555
B22_2 Mg14_2 2.773001 1_555
B22_3 Rh14_7 2.206668 1_455
B22_3 Rh14_3 2.206668 1_555
B22_3 Rh16_6 2.211318 1_456
B22_3 Rh16_2 2.211318 1_556
B22_3 Rh10_7 2.260412 1_455
B22_3 Rh10_3 2.260412 1_555
B22_3 Mg4_2 2.697945 1_556
B22_3 Mg14_3 2.773001 1_555
B22_4 Rh14_0 2.206668 1_555
B22_4 Rh14_4 2.206668 1_555
B22_4 Rh16_1 2.211318 1_555
B22_4 Rh16_5 2.211318 1_555
B22_4 Rh10_0 2.260412 1_555
B22_4 Rh10_4 2.260412 1_555
B22_4 Mg4_5 2.697945 1_555
B22_4 Mg14_4 2.773001 1_555
B22_5 Rh14_1 2.206668 1_555
B22_5 Rh14_5 2.206668 1_555
B22_5 Rh16_0 2.211318 1_556
B22_5 Rh16_4 2.211318 1_556
B22_5 Rh10_1 2.260412 1_555
B22_5 Rh10_5 2.260412 1_555
B22_5 Mg4_4 2.697945 1_556
B22_5 Mg14_5 2.773001 1_555
B22_6 Rh14_2 2.206668 1_555
B22_6 Rh14_6 2.206668 1_555
B22_6 Rh16_3 2.211318 1_555
B22_6 Rh16_7 2.211318 1_555
B22_6 Rh10_2 2.260412 1_555
B22_6 Rh10_6 2.260412 1_555
B22_6 Mg4_7 2.697945 1_555
B22_6 Mg14_6 2.773001 1_555
B22_7 Rh14_3 2.206668 1_555
B22_7 Rh14_7 2.206668 1_555
B22_7 Rh16_2 2.211318 1_556
B22_7 Rh16_6 2.211318 1_556
B22_7 Rh10_3 2.260412 1_555
B22_7 Rh10_7 2.260412 1_555
B22_7 Mg4_6 2.697945 1_556
B22_7 Mg14_7 2.773001 1_555
B23_0 Rh15_4 2.206668 1_455
B23_0 Rh15_0 2.206668 1_555
B23_0 Rh17_5 2.211318 1_454
B23_0 Rh17_1 2.211318 1_554
B23_0 Rh11_0 2.260412 1_555
B23_0 Rh11_4 2.260412 1_455
B23_0 Mg5_1 2.697945 1_554
B23_0 Mg15_0 2.773001 1_555
B23_1 Rh15_5 2.206668 1_455
B23_1 Rh15_1 2.206668 1_555
B23_1 Rh17_4 2.211318 1_455
B23_1 Rh17_0 2.211318 1_555
B23_1 Rh11_5 2.260412 1_455
B23_1 Rh11_1 2.260412 1_555
B23_1 Mg5_0 2.697945 1_555
B23_1 Mg15_1 2.773001 1_555
B23_2 Rh15_6 2.206668 1_455
B23_2 Rh15_2 2.206668 1_555
B23_2 Rh17_7 2.211318 1_454
B23_2 Rh17_3 2.211318 1_554
B23_2 Rh11_2 2.260412 1_555
B23_2 Rh11_6 2.260412 1_455
B23_2 Mg5_3 2.697945 1_554
B23_2 Mg15_2 2.773001 1_555
B23_3 Rh15_7 2.206668 1_455
B23_3 Rh15_3 2.206668 1_555
B23_3 Rh17_6 2.211318 1_455
B23_3 Rh17_2 2.211318 1_555
B23_3 Rh11_7 2.260412 1_455
B23_3 Rh11_3 2.260412 1_555
B23_3 Mg5_2 2.697945 1_555
B23_3 Mg15_3 2.773001 1_555
B23_4 Rh15_0 2.206668 1_555
B23_4 Rh15_4 2.206668 1_555
B23_4 Rh17_1 2.211318 1_554
B23_4 Rh17_5 2.211318 1_554
B23_4 Rh11_0 2.260412 1_555
B23_4 Rh11_4 2.260412 1_555
B23_4 Mg5_5 2.697945 1_554
B23_4 Mg15_4 2.773001 1_555
B23_5 Rh15_1 2.206668 1_555
B23_5 Rh15_5 2.206668 1_555
B23_5 Rh17_0 2.211318 1_555
B23_5 Rh17_4 2.211318 1_555
B23_5 Rh11_1 2.260412 1_555
B23_5 Rh11_5 2.260412 1_555
B23_5 Mg5_4 2.697945 1_555
B23_5 Mg15_5 2.773001 1_555
B23_6 Rh15_2 2.206668 1_555
B23_6 Rh15_6 2.206668 1_555
B23_6 Rh17_3 2.211318 1_554
B23_6 Rh17_7 2.211318 1_554
B23_6 Rh11_2 2.260412 1_555
B23_6 Rh11_6 2.260412 1_555
B23_6 Mg5_7 2.697945 1_554
B23_6 Mg15_6 2.773001 1_555
B23_7 Rh15_3 2.206668 1_555
B23_7 Rh15_7 2.206668 1_555
B23_7 Rh17_2 2.211318 1_555
B23_7 Rh17_6 2.211318 1_555
B23_7 Rh11_3 2.260412 1_555
B23_7 Rh11_7 2.260412 1_555
B23_7 Mg5_6 2.697945 1_555
B23_7 Mg15_7 2.773001 1_555
