# generated using pymatgen
data_Zn2BIr2
_symmetry_space_group_name_H-M   'P 1'
_cell_length_a   26.67865557
_cell_length_b   26.67865557
_cell_length_c   20.38162798
_cell_angle_alpha   90.00000000
_cell_angle_beta   90.00000000
_cell_angle_gamma   167.85251983
_symmetry_Int_Tables_number   1
_chemical_formula_structural   Zn2BIr2
_chemical_formula_sum   'Zn96 B48 Ir96'
_cell_volume   3052.61376303
_cell_formula_units_Z   48
loop_
 _symmetry_equiv_pos_site_id
 _symmetry_equiv_pos_as_xyz
  1  'x, y, z'
loop_
 _atom_site_type_symbol
 _atom_site_label
 _atom_site_symmetry_multiplicity
 _atom_site_fract_x
 _atom_site_fract_y
 _atom_site_fract_z
 _atom_site_occupancy
  Zn  Zn0_0  1  0.04439485  0.45560515  0.05983964  1
  Zn  Zn0_1  1  0.04439485  0.45560515  0.55983964  1
  Zn  Zn0_2  1  0.04439484  0.95560515  0.05983964  1
  Zn  Zn0_3  1  0.04439484  0.95560515  0.55983964  1
  Zn  Zn0_4  1  0.54439485  0.45560515  0.05983964  1
  Zn  Zn0_5  1  0.54439485  0.45560515  0.55983964  1
  Zn  Zn0_6  1  0.54439485  0.95560515  0.05983964  1
  Zn  Zn0_7  1  0.54439485  0.95560515  0.55983964  1
  Zn  Zn1_0  1  0.45560515  0.04439485  0.44016036  1
  Zn  Zn1_1  1  0.45560515  0.04439485  0.94016036  1
  Zn  Zn1_2  1  0.45560515  0.54439485  0.44016036  1
  Zn  Zn1_3  1  0.45560515  0.54439485  0.94016036  1
  Zn  Zn1_4  1  0.95560515  0.04439485  0.44016036  1
  Zn  Zn1_5  1  0.95560515  0.04439485  0.94016036  1
  Zn  Zn1_6  1  0.95560515  0.54439485  0.44016036  1
  Zn  Zn1_7  1  0.95560515  0.54439485  0.94016036  1
  Zn  Zn2_0  1  0.45560515  0.04439485  0.30983964  1
  Zn  Zn2_1  1  0.45560515  0.04439485  0.80983964  1
  Zn  Zn2_2  1  0.45560515  0.54439485  0.30983964  1
  Zn  Zn2_3  1  0.45560515  0.54439485  0.80983964  1
  Zn  Zn2_4  1  0.95560515  0.04439485  0.30983964  1
  Zn  Zn2_5  1  0.95560515  0.04439485  0.80983964  1
  Zn  Zn2_6  1  0.95560515  0.54439485  0.30983964  1
  Zn  Zn2_7  1  0.95560515  0.54439485  0.80983964  1
  Zn  Zn3_0  1  0.04439485  0.45560515  0.19016036  1
  Zn  Zn3_1  1  0.04439485  0.45560515  0.69016036  1
  Zn  Zn3_2  1  0.04439484  0.95560515  0.19016036  1
  Zn  Zn3_3  1  0.04439484  0.95560515  0.69016036  1
  Zn  Zn3_4  1  0.54439485  0.45560515  0.19016036  1
  Zn  Zn3_5  1  0.54439485  0.45560515  0.69016036  1
  Zn  Zn3_6  1  0.54439485  0.95560515  0.19016036  1
  Zn  Zn3_7  1  0.54439485  0.95560515  0.69016036  1
  Zn  Zn4_0  1  0.11955826  0.38044174  0.30525273  1
  Zn  Zn4_1  1  0.11955826  0.38044174  0.80525273  1
  Zn  Zn4_2  1  0.11955826  0.88044174  0.30525273  1
  Zn  Zn4_3  1  0.11955826  0.88044174  0.80525273  1
  Zn  Zn4_4  1  0.61955825  0.38044174  0.30525273  1
  Zn  Zn4_5  1  0.61955825  0.38044174  0.80525273  1
  Zn  Zn4_6  1  0.61955825  0.88044175  0.30525273  1
  Zn  Zn4_7  1  0.61955825  0.88044175  0.80525273  1
  Zn  Zn5_0  1  0.38044174  0.11955826  0.19474727  1
  Zn  Zn5_1  1  0.38044174  0.11955826  0.69474727  1
  Zn  Zn5_2  1  0.38044174  0.61955825  0.19474727  1
  Zn  Zn5_3  1  0.38044174  0.61955825  0.69474727  1
  Zn  Zn5_4  1  0.88044174  0.11955826  0.19474727  1
  Zn  Zn5_5  1  0.88044174  0.11955826  0.69474727  1
  Zn  Zn5_6  1  0.88044175  0.61955825  0.19474727  1
  Zn  Zn5_7  1  0.88044175  0.61955825  0.69474727  1
  Zn  Zn6_0  1  0.00000000  0.00000000  0.00000000  1
  Zn  Zn6_1  1  0.00000000  0.00000000  0.50000000  1
  Zn  Zn6_2  1  0.00000000  0.50000000  0.00000000  1
  Zn  Zn6_3  1  0.00000000  0.50000000  0.50000000  1
  Zn  Zn6_4  1  0.50000000  0.00000000  0.00000000  1
  Zn  Zn6_5  1  0.50000000  0.00000000  0.50000000  1
  Zn  Zn6_6  1  0.50000000  0.50000000  0.00000000  1
  Zn  Zn6_7  1  0.50000000  0.50000000  0.50000000  1
  Zn  Zn7_0  1  0.00000000  0.00000000  0.25000000  1
  Zn  Zn7_1  1  0.00000000  0.00000000  0.75000000  1
  Zn  Zn7_2  1  0.00000000  0.50000000  0.25000000  1
  Zn  Zn7_3  1  0.00000000  0.50000000  0.75000000  1
  Zn  Zn7_4  1  0.50000000  0.00000000  0.25000000  1
  Zn  Zn7_5  1  0.50000000  0.00000000  0.75000000  1
  Zn  Zn7_6  1  0.50000000  0.50000000  0.25000000  1
  Zn  Zn7_7  1  0.50000000  0.50000000  0.75000000  1
  Zn  Zn8_0  1  0.40996562  0.09003439  0.37500000  1
  Zn  Zn8_1  1  0.40996562  0.09003439  0.87500000  1
  Zn  Zn8_2  1  0.40996562  0.59003438  0.37500000  1
  Zn  Zn8_3  1  0.40996562  0.59003438  0.87500000  1
  Zn  Zn8_4  1  0.90996561  0.09003439  0.37500000  1
  Zn  Zn8_5  1  0.90996561  0.09003439  0.87500000  1
  Zn  Zn8_6  1  0.90996561  0.59003439  0.37500000  1
  Zn  Zn8_7  1  0.90996561  0.59003439  0.87500000  1
  Zn  Zn9_0  1  0.09003439  0.40996562  0.12500000  1
  Zn  Zn9_1  1  0.09003439  0.40996562  0.62500000  1
  Zn  Zn9_2  1  0.09003439  0.90996561  0.12500000  1
  Zn  Zn9_3  1  0.09003439  0.90996561  0.62500000  1
  Zn  Zn9_4  1  0.59003438  0.40996562  0.12500000  1
  Zn  Zn9_5  1  0.59003438  0.40996562  0.62500000  1
  Zn  Zn9_6  1  0.59003439  0.90996561  0.12500000  1
  Zn  Zn9_7  1  0.59003439  0.90996561  0.62500000  1
  Zn  Zn10_0  1  0.11955826  0.38044174  0.44474728  1
  Zn  Zn10_1  1  0.11955826  0.38044174  0.94474727  1
  Zn  Zn10_2  1  0.11955826  0.88044174  0.44474728  1
  Zn  Zn10_3  1  0.11955826  0.88044174  0.94474727  1
  Zn  Zn10_4  1  0.61955825  0.38044174  0.44474728  1
  Zn  Zn10_5  1  0.61955825  0.38044174  0.94474727  1
  Zn  Zn10_6  1  0.61955825  0.88044175  0.44474728  1
  Zn  Zn10_7  1  0.61955825  0.88044175  0.94474727  1
  Zn  Zn11_0  1  0.38044174  0.11955826  0.05525273  1
  Zn  Zn11_1  1  0.38044174  0.11955826  0.55525273  1
  Zn  Zn11_2  1  0.38044174  0.61955825  0.05525273  1
  Zn  Zn11_3  1  0.38044174  0.61955825  0.55525273  1
  Zn  Zn11_4  1  0.88044174  0.11955826  0.05525273  1
  Zn  Zn11_5  1  0.88044174  0.11955826  0.55525273  1
  Zn  Zn11_6  1  0.88044175  0.61955825  0.05525273  1
  Zn  Zn11_7  1  0.88044175  0.61955825  0.55525273  1
  B  B0_0  1  0.06943028  0.43056972  0.30266254  1
  B  B0_1  1  0.06943028  0.43056972  0.80266254  1
  B  B0_2  1  0.06943028  0.93056972  0.30266254  1
  B  B0_3  1  0.06943028  0.93056972  0.80266254  1
  B  B0_4  1  0.56943028  0.43056972  0.30266254  1
  B  B0_5  1  0.56943028  0.43056972  0.80266254  1
  B  B0_6  1  0.56943028  0.93056972  0.30266254  1
  B  B0_7  1  0.56943028  0.93056972  0.80266254  1
  B  B1_0  1  0.43056972  0.06943028  0.19733746  1
  B  B1_1  1  0.43056972  0.06943028  0.69733746  1
  B  B1_2  1  0.43056972  0.56943028  0.19733746  1
  B  B1_3  1  0.43056972  0.56943028  0.69733746  1
  B  B1_4  1  0.93056972  0.06943028  0.19733746  1
  B  B1_5  1  0.93056972  0.06943028  0.69733746  1
  B  B1_6  1  0.93056972  0.56943028  0.19733746  1
  B  B1_7  1  0.93056972  0.56943028  0.69733746  1
  B  B2_0  1  0.43056972  0.06943028  0.05266254  1
  B  B2_1  1  0.43056972  0.06943028  0.55266254  1
  B  B2_2  1  0.43056972  0.56943028  0.05266254  1
  B  B2_3  1  0.43056972  0.56943028  0.55266254  1
  B  B2_4  1  0.93056972  0.06943028  0.05266254  1
  B  B2_5  1  0.93056972  0.06943028  0.55266254  1
  B  B2_6  1  0.93056972  0.56943028  0.05266254  1
  B  B2_7  1  0.93056972  0.56943028  0.55266254  1
  B  B3_0  1  0.06943028  0.43056972  0.44733746  1
  B  B3_1  1  0.06943028  0.43056972  0.94733746  1
  B  B3_2  1  0.06943028  0.93056972  0.44733746  1
  B  B3_3  1  0.06943028  0.93056972  0.94733746  1
  B  B3_4  1  0.56943028  0.43056972  0.44733746  1
  B  B3_5  1  0.56943028  0.43056972  0.94733746  1
  B  B3_6  1  0.56943028  0.93056972  0.44733746  1
  B  B3_7  1  0.56943028  0.93056972  0.94733746  1
  B  B4_0  1  0.47972723  0.02027277  0.12500000  1
  B  B4_1  1  0.47972723  0.02027277  0.62500000  1
  B  B4_2  1  0.47972724  0.52027276  0.12500000  1
  B  B4_3  1  0.47972724  0.52027276  0.62500000  1
  B  B4_4  1  0.97972724  0.02027277  0.12500000  1
  B  B4_5  1  0.97972724  0.02027277  0.62500000  1
  B  B4_6  1  0.97972724  0.52027276  0.12500000  1
  B  B4_7  1  0.97972724  0.52027276  0.62500000  1
  B  B5_0  1  0.02027277  0.47972723  0.37500000  1
  B  B5_1  1  0.02027277  0.47972723  0.87500000  1
  B  B5_2  1  0.02027277  0.97972724  0.37500000  1
  B  B5_3  1  0.02027277  0.97972724  0.87500000  1
  B  B5_4  1  0.52027276  0.47972724  0.37500000  1
  B  B5_5  1  0.52027276  0.47972724  0.87500000  1
  B  B5_6  1  0.52027276  0.97972724  0.37500000  1
  B  B5_7  1  0.52027276  0.97972724  0.87500000  1
  Ir  Ir0_0  1  0.16559894  0.33440106  0.26598829  1
  Ir  Ir0_1  1  0.16559894  0.33440106  0.76598829  1
  Ir  Ir0_2  1  0.16559895  0.83440105  0.26598829  1
  Ir  Ir0_3  1  0.16559895  0.83440105  0.76598829  1
  Ir  Ir0_4  1  0.66559894  0.33440106  0.26598829  1
  Ir  Ir0_5  1  0.66559894  0.33440106  0.76598829  1
  Ir  Ir0_6  1  0.66559895  0.83440105  0.26598829  1
  Ir  Ir0_7  1  0.66559895  0.83440105  0.76598829  1
  Ir  Ir1_0  1  0.33440106  0.16559894  0.23401170  1
  Ir  Ir1_1  1  0.33440106  0.16559894  0.73401171  1
  Ir  Ir1_2  1  0.33440106  0.66559894  0.23401170  1
  Ir  Ir1_3  1  0.33440106  0.66559894  0.73401171  1
  Ir  Ir1_4  1  0.83440105  0.16559895  0.23401170  1
  Ir  Ir1_5  1  0.83440105  0.16559895  0.73401171  1
  Ir  Ir1_6  1  0.83440105  0.66559895  0.23401170  1
  Ir  Ir1_7  1  0.83440105  0.66559895  0.73401171  1
  Ir  Ir2_0  1  0.33440106  0.16559894  0.01598829  1
  Ir  Ir2_1  1  0.33440106  0.16559894  0.51598829  1
  Ir  Ir2_2  1  0.33440106  0.66559894  0.01598829  1
  Ir  Ir2_3  1  0.33440106  0.66559894  0.51598829  1
  Ir  Ir2_4  1  0.83440105  0.16559895  0.01598829  1
  Ir  Ir2_5  1  0.83440105  0.16559895  0.51598829  1
  Ir  Ir2_6  1  0.83440105  0.66559895  0.01598829  1
  Ir  Ir2_7  1  0.83440105  0.66559895  0.51598829  1
  Ir  Ir3_0  1  0.16559894  0.33440106  0.48401171  1
  Ir  Ir3_1  1  0.16559894  0.33440106  0.98401171  1
  Ir  Ir3_2  1  0.16559895  0.83440105  0.48401171  1
  Ir  Ir3_3  1  0.16559895  0.83440105  0.98401171  1
  Ir  Ir3_4  1  0.66559894  0.33440106  0.48401171  1
  Ir  Ir3_5  1  0.66559894  0.33440106  0.98401171  1
  Ir  Ir3_6  1  0.66559895  0.83440105  0.48401171  1
  Ir  Ir3_7  1  0.66559895  0.83440105  0.98401171  1
  Ir  Ir4_0  1  0.25985672  0.24014329  0.12500000  1
  Ir  Ir4_1  1  0.25985672  0.24014329  0.62500000  1
  Ir  Ir4_2  1  0.25985672  0.74014328  0.12500000  1
  Ir  Ir4_3  1  0.25985672  0.74014328  0.62500000  1
  Ir  Ir4_4  1  0.75985671  0.24014329  0.12500000  1
  Ir  Ir4_5  1  0.75985671  0.24014329  0.62500000  1
  Ir  Ir4_6  1  0.75985671  0.74014329  0.12500000  1
  Ir  Ir4_7  1  0.75985671  0.74014329  0.62500000  1
  Ir  Ir5_0  1  0.24014329  0.25985672  0.37500000  1
  Ir  Ir5_1  1  0.24014329  0.25985672  0.87500000  1
  Ir  Ir5_2  1  0.24014329  0.75985671  0.37500000  1
  Ir  Ir5_3  1  0.24014329  0.75985671  0.87500000  1
  Ir  Ir5_4  1  0.74014328  0.25985672  0.37500000  1
  Ir  Ir5_5  1  0.74014328  0.25985672  0.87500000  1
  Ir  Ir5_6  1  0.74014329  0.75985671  0.37500000  1
  Ir  Ir5_7  1  0.74014329  0.75985671  0.87500000  1
  Ir  Ir6_0  1  0.16410734  0.33589266  0.12500000  1
  Ir  Ir6_1  1  0.16410734  0.33589266  0.62500000  1
  Ir  Ir6_2  1  0.16410734  0.83589267  0.12500000  1
  Ir  Ir6_3  1  0.16410734  0.83589267  0.62500000  1
  Ir  Ir6_4  1  0.66410733  0.33589267  0.12500000  1
  Ir  Ir6_5  1  0.66410733  0.33589267  0.62500000  1
  Ir  Ir6_6  1  0.66410733  0.83589267  0.12500000  1
  Ir  Ir6_7  1  0.66410733  0.83589267  0.62500000  1
  Ir  Ir7_0  1  0.33589266  0.16410733  0.37500000  1
  Ir  Ir7_1  1  0.33589266  0.16410733  0.87500000  1
  Ir  Ir7_2  1  0.33589267  0.66410733  0.37500000  1
  Ir  Ir7_3  1  0.33589267  0.66410733  0.87500000  1
  Ir  Ir7_4  1  0.83589267  0.16410734  0.37500000  1
  Ir  Ir7_5  1  0.83589267  0.16410734  0.87500000  1
  Ir  Ir7_6  1  0.83589267  0.66410733  0.37500000  1
  Ir  Ir7_7  1  0.83589267  0.66410733  0.87500000  1
  Ir  Ir8_0  1  0.28729992  0.21270008  0.30434150  1
  Ir  Ir8_1  1  0.28729992  0.21270008  0.80434150  1
  Ir  Ir8_2  1  0.28729992  0.71270008  0.30434150  1
  Ir  Ir8_3  1  0.28729992  0.71270008  0.80434150  1
  Ir  Ir8_4  1  0.78729992  0.21270008  0.30434150  1
  Ir  Ir8_5  1  0.78729992  0.21270008  0.80434150  1
  Ir  Ir8_6  1  0.78729992  0.71270008  0.30434150  1
  Ir  Ir8_7  1  0.78729992  0.71270008  0.80434150  1
  Ir  Ir9_0  1  0.21270008  0.28729992  0.19565850  1
  Ir  Ir9_1  1  0.21270008  0.28729992  0.69565850  1
  Ir  Ir9_2  1  0.21270008  0.78729992  0.19565850  1
  Ir  Ir9_3  1  0.21270008  0.78729992  0.69565850  1
  Ir  Ir9_4  1  0.71270008  0.28729992  0.19565850  1
  Ir  Ir9_5  1  0.71270008  0.28729992  0.69565850  1
  Ir  Ir9_6  1  0.71270008  0.78729992  0.19565850  1
  Ir  Ir9_7  1  0.71270008  0.78729992  0.69565850  1
  Ir  Ir10_0  1  0.21270008  0.28729992  0.05434150  1
  Ir  Ir10_1  1  0.21270008  0.28729992  0.55434150  1
  Ir  Ir10_2  1  0.21270008  0.78729992  0.05434150  1
  Ir  Ir10_3  1  0.21270008  0.78729992  0.55434150  1
  Ir  Ir10_4  1  0.71270008  0.28729992  0.05434150  1
  Ir  Ir10_5  1  0.71270008  0.28729992  0.55434150  1
  Ir  Ir10_6  1  0.71270008  0.78729992  0.05434150  1
  Ir  Ir10_7  1  0.71270008  0.78729992  0.55434150  1
  Ir  Ir11_0  1  0.28729992  0.21270008  0.44565850  1
  Ir  Ir11_1  1  0.28729992  0.21270008  0.94565850  1
  Ir  Ir11_2  1  0.28729992  0.71270008  0.44565850  1
  Ir  Ir11_3  1  0.28729992  0.71270008  0.94565850  1
  Ir  Ir11_4  1  0.78729992  0.21270008  0.44565850  1
  Ir  Ir11_5  1  0.78729992  0.21270008  0.94565850  1
  Ir  Ir11_6  1  0.78729992  0.71270008  0.44565850  1
  Ir  Ir11_7  1  0.78729992  0.71270008  0.94565850  1
loop_
_geom_bond_atom_site_label_1
_geom_bond_atom_site_label_2
_geom_bond_distance
_geom_bond_site_symmetry_2
Zn0_0 Zn6_2 2.652516 1_555
Zn0_0 Zn3_0 2.656148 1_555
Zn0_0 Zn9_0 2.761812 1_555
Zn0_0 Zn0_6 2.822824 1_445
Zn0_0 Zn0_6 2.822824 1_555
Zn0_1 Zn6_3 2.652516 1_555
Zn0_1 Zn3_1 2.656148 1_555
Zn0_1 Zn9_1 2.761812 1_555
Zn0_1 Zn0_7 2.822824 1_445
Zn0_1 Zn0_7 2.822824 1_555
Zn0_2 Zn6_0 2.652516 1_565
Zn0_2 Zn3_2 2.656148 1_555
Zn0_2 Zn9_2 2.761812 1_555
Zn0_2 Zn0_4 2.822824 1_455
Zn0_2 Zn0_4 2.822824 1_565
Zn0_3 Zn6_1 2.652516 1_565
Zn0_3 Zn3_3 2.656148 1_555
Zn0_3 Zn9_3 2.761812 1_555
Zn0_3 Zn0_5 2.822824 1_565
Zn0_3 Zn0_5 2.822824 1_455
Zn0_4 Zn6_6 2.652516 1_555
Zn0_4 Zn3_4 2.656148 1_555
Zn0_4 Zn9_4 2.761812 1_555
Zn0_5 Zn6_7 2.652516 1_555
Zn0_5 Zn3_5 2.656148 1_555
Zn0_5 Zn9_5 2.761812 1_555
Zn0_6 Zn6_4 2.652516 1_565
Zn0_6 Zn3_6 2.656148 1_555
Zn0_6 Zn9_6 2.761812 1_555
Zn0_7 Zn6_5 2.652516 1_565
Zn0_7 Zn3_7 2.656148 1_555
Zn0_7 Zn9_7 2.761812 1_555
Zn1_0 Zn6_5 2.652516 1_555
Zn1_0 Zn2_0 2.656148 1_555
Zn1_0 Zn8_0 2.761812 1_555
Zn1_0 Zn1_6 2.822824 1_555
Zn1_0 Zn1_6 2.822824 1_445
Zn1_1 Zn6_4 2.652516 1_556
Zn1_1 Zn2_1 2.656148 1_555
Zn1_1 Zn8_1 2.761812 1_555
Zn1_1 Zn1_7 2.822824 1_555
Zn1_1 Zn1_7 2.822824 1_445
Zn1_2 Zn6_7 2.652516 1_555
Zn1_2 Zn2_2 2.656148 1_555
Zn1_2 Zn8_2 2.761812 1_555
Zn1_2 Zn1_4 2.822824 1_565
Zn1_2 Zn1_4 2.822824 1_455
Zn1_3 Zn6_6 2.652516 1_556
Zn1_3 Zn2_3 2.656148 1_555
Zn1_3 Zn8_3 2.761812 1_555
Zn1_3 Zn1_5 2.822824 1_565
Zn1_3 Zn1_5 2.822824 1_455
Zn1_4 Zn6_1 2.652516 1_655
Zn1_4 Zn2_4 2.656148 1_555
Zn1_4 Zn8_4 2.761812 1_555
Zn1_5 Zn6_0 2.652516 1_656
Zn1_5 Zn2_5 2.656148 1_555
Zn1_5 Zn8_5 2.761812 1_555
Zn1_6 Zn6_3 2.652516 1_655
Zn1_6 Zn2_6 2.656148 1_555
Zn1_6 Zn8_6 2.761812 1_555
Zn1_7 Zn6_2 2.652516 1_656
Zn1_7 Zn2_7 2.656148 1_555
Zn1_7 Zn8_7 2.761812 1_555
Zn2_0 Zn7_4 2.652516 1_555
Zn2_0 Zn8_0 2.761812 1_555
Zn2_0 Zn2_6 2.822824 1_555
Zn2_0 Zn2_6 2.822824 1_445
Zn2_1 Zn7_5 2.652516 1_555
Zn2_1 Zn8_1 2.761812 1_555
Zn2_1 Zn2_7 2.822824 1_555
Zn2_1 Zn2_7 2.822824 1_445
Zn2_2 Zn7_6 2.652516 1_555
Zn2_2 Zn8_2 2.761812 1_555
Zn2_2 Zn2_4 2.822824 1_455
Zn2_2 Zn2_4 2.822824 1_565
Zn2_3 Zn7_7 2.652516 1_555
Zn2_3 Zn8_3 2.761812 1_555
Zn2_3 Zn2_5 2.822824 1_565
Zn2_3 Zn2_5 2.822824 1_455
Zn2_4 Zn7_0 2.652516 1_655
Zn2_4 Zn8_4 2.761812 1_555
Zn2_5 Zn7_1 2.652516 1_655
Zn2_5 Zn8_5 2.761812 1_555
Zn2_6 Zn7_2 2.652516 1_655
Zn2_6 Zn8_6 2.761812 1_555
Zn2_7 Zn7_3 2.652516 1_655
Zn2_7 Zn8_7 2.761812 1_555
Zn3_0 Zn7_2 2.652516 1_555
Zn3_0 Zn9_0 2.761812 1_555
Zn3_0 Zn3_6 2.822824 1_445
Zn3_0 Zn3_6 2.822824 1_555
Zn3_1 Zn7_3 2.652516 1_555
Zn3_1 Zn9_1 2.761812 1_555
Zn3_1 Zn3_7 2.822824 1_555
Zn3_1 Zn3_7 2.822824 1_445
Zn3_2 Zn7_0 2.652516 1_565
Zn3_2 Zn9_2 2.761812 1_555
Zn3_2 Zn3_4 2.822824 1_565
Zn3_2 Zn3_4 2.822824 1_455
Zn3_3 Zn7_1 2.652516 1_565
Zn3_3 Zn9_3 2.761812 1_555
Zn3_3 Zn3_5 2.822824 1_565
Zn3_3 Zn3_5 2.822824 1_455
Zn3_4 Zn7_6 2.652516 1_555
Zn3_4 Zn9_4 2.761812 1_555
Zn3_5 Zn7_7 2.652516 1_555
Zn3_5 Zn9_5 2.761812 1_555
Zn3_6 Zn7_4 2.652516 1_565
Zn3_6 Zn9_6 2.761812 1_555
Zn3_7 Zn7_5 2.652516 1_565
Zn3_7 Zn9_7 2.761812 1_555
Zn4_0 Zn5_4 2.719983 1_455
Zn4_0 Zn5_2 2.719983 1_555
Zn4_0 Zn4_6 2.822824 1_555
Zn4_0 Zn4_6 2.822824 1_445
Zn4_0 Zn8_4 2.934168 1_455
Zn4_0 Zn8_2 2.934168 1_555
Zn4_1 Zn5_5 2.719983 1_455
Zn4_1 Zn5_3 2.719983 1_555
Zn4_1 Zn4_7 2.822824 1_445
Zn4_1 Zn4_7 2.822824 1_555
Zn4_1 Zn8_5 2.934168 1_455
Zn4_1 Zn8_3 2.934168 1_555
Zn4_2 Zn5_0 2.719983 1_565
Zn4_2 Zn5_6 2.719983 1_455
Zn4_2 Zn4_4 2.822824 1_565
Zn4_2 Zn4_4 2.822824 1_455
Zn4_2 Zn8_6 2.934168 1_455
Zn4_2 Zn8_0 2.934168 1_565
Zn4_3 Zn5_1 2.719983 1_565
Zn4_3 Zn5_7 2.719983 1_455
Zn4_3 Zn4_5 2.822824 1_455
Zn4_3 Zn4_5 2.822824 1_565
Zn4_3 Zn8_7 2.934168 1_455
Zn4_3 Zn8_1 2.934168 1_565
Zn4_4 Zn5_0 2.719983 1_555
Zn4_4 Zn5_6 2.719983 1_555
Zn4_4 Zn8_6 2.934168 1_555
Zn4_4 Zn8_0 2.934168 1_555
Zn4_5 Zn5_1 2.719983 1_555
Zn4_5 Zn5_7 2.719983 1_555
Zn4_5 Zn8_7 2.934168 1_555
Zn4_5 Zn8_1 2.934168 1_555
Zn4_6 Zn5_4 2.719983 1_565
Zn4_6 Zn5_2 2.719983 1_555
Zn4_6 Zn8_4 2.934168 1_565
Zn4_6 Zn8_2 2.934168 1_555
Zn4_7 Zn5_5 2.719983 1_565
Zn4_7 Zn5_3 2.719983 1_555
Zn4_7 Zn8_5 2.934168 1_565
Zn4_7 Zn8_3 2.934168 1_555
Zn5_0 Zn5_6 2.822824 1_555
Zn5_0 Zn5_6 2.822824 1_445
Zn5_0 Zn9_2 2.934168 1_545
Zn5_0 Zn9_4 2.934168 1_555
Zn5_1 Zn5_7 2.822824 1_555
Zn5_1 Zn5_7 2.822824 1_445
Zn5_1 Zn9_3 2.934168 1_545
Zn5_1 Zn9_5 2.934168 1_555
Zn5_2 Zn5_4 2.822824 1_455
Zn5_2 Zn5_4 2.822824 1_565
Zn5_2 Zn9_6 2.934168 1_555
Zn5_2 Zn9_0 2.934168 1_555
Zn5_3 Zn5_5 2.822824 1_565
Zn5_3 Zn5_5 2.822824 1_455
Zn5_3 Zn9_7 2.934168 1_555
Zn5_3 Zn9_1 2.934168 1_555
Zn5_4 Zn9_6 2.934168 1_545
Zn5_4 Zn9_0 2.934168 1_655
Zn5_5 Zn9_7 2.934168 1_545
Zn5_5 Zn9_1 2.934168 1_655
Zn5_6 Zn9_2 2.934168 1_655
Zn5_6 Zn9_4 2.934168 1_555
Zn5_7 Zn9_3 2.934168 1_655
Zn5_7 Zn9_5 2.934168 1_555
Zn6_0 Zn6_6 2.822824 1_445
Zn6_0 Zn6_6 2.822824 1_555
Zn6_1 Zn6_7 2.822824 1_445
Zn6_1 Zn6_7 2.822824 1_555
Zn6_2 Zn6_4 2.822824 1_565
Zn6_2 Zn6_4 2.822824 1_455
Zn6_3 Zn6_5 2.822824 1_565
Zn6_3 Zn6_5 2.822824 1_455
Zn7_0 Zn7_6 2.822824 1_445
Zn7_0 Zn7_6 2.822824 1_555
Zn7_1 Zn7_7 2.822824 1_555
Zn7_1 Zn7_7 2.822824 1_445
Zn7_2 Zn7_4 2.822824 1_455
Zn7_2 Zn7_4 2.822824 1_565
Zn7_3 Zn7_5 2.822824 1_565
Zn7_3 Zn7_5 2.822824 1_455
Zn10_0 Zn11_5 2.719983 1_455
Zn10_0 Zn11_3 2.719983 1_555
Zn10_0 Zn10_6 2.822824 1_445
Zn10_0 Zn10_6 2.822824 1_555
Zn10_0 Zn4_0 2.843126 1_555
Zn10_0 Zn8_4 2.934168 1_455
Zn10_0 Zn8_2 2.934168 1_555
Zn10_1 Zn11_4 2.719983 1_456
Zn10_1 Zn11_2 2.719983 1_556
Zn10_1 Zn10_7 2.822824 1_445
Zn10_1 Zn10_7 2.822824 1_555
Zn10_1 Zn4_1 2.843126 1_555
Zn10_1 Zn8_5 2.934168 1_455
Zn10_1 Zn8_3 2.934168 1_555
Zn10_2 Zn11_1 2.719983 1_565
Zn10_2 Zn11_7 2.719983 1_455
Zn10_2 Zn10_4 2.822824 1_455
Zn10_2 Zn10_4 2.822824 1_565
Zn10_2 Zn4_2 2.843126 1_555
Zn10_2 Zn8_6 2.934168 1_455
Zn10_2 Zn8_0 2.934168 1_565
Zn10_3 Zn11_0 2.719983 1_566
Zn10_3 Zn11_6 2.719983 1_456
Zn10_3 Zn10_5 2.822824 1_455
Zn10_3 Zn10_5 2.822824 1_565
Zn10_3 Zn4_3 2.843126 1_555
Zn10_3 Zn8_7 2.934168 1_455
Zn10_3 Zn8_1 2.934168 1_565
Zn10_4 Zn11_1 2.719983 1_555
Zn10_4 Zn11_7 2.719983 1_555
Zn10_4 Zn4_4 2.843126 1_555
Zn10_4 Zn8_6 2.934168 1_555
Zn10_4 Zn8_0 2.934168 1_555
Zn10_5 Zn11_0 2.719983 1_556
Zn10_5 Zn11_6 2.719983 1_556
Zn10_5 Zn4_5 2.843126 1_555
Zn10_5 Zn8_7 2.934168 1_555
Zn10_5 Zn8_1 2.934168 1_555
Zn10_6 Zn11_5 2.719983 1_565
Zn10_6 Zn11_3 2.719983 1_555
Zn10_6 Zn4_6 2.843126 1_555
Zn10_6 Zn8_4 2.934168 1_565
Zn10_6 Zn8_2 2.934168 1_555
Zn10_7 Zn11_4 2.719983 1_566
Zn10_7 Zn11_2 2.719983 1_556
Zn10_7 Zn4_7 2.843126 1_555
Zn10_7 Zn8_5 2.934168 1_565
Zn10_7 Zn8_3 2.934168 1_555
Zn11_0 Zn11_6 2.822824 1_445
Zn11_0 Zn11_6 2.822824 1_555
Zn11_0 Zn5_0 2.843126 1_555
Zn11_0 Zn9_2 2.934168 1_545
Zn11_0 Zn9_4 2.934168 1_555
Zn11_1 Zn11_7 2.822824 1_555
Zn11_1 Zn11_7 2.822824 1_445
Zn11_1 Zn5_1 2.843126 1_555
Zn11_1 Zn9_3 2.934168 1_545
Zn11_1 Zn9_5 2.934168 1_555
Zn11_2 Zn11_4 2.822824 1_455
Zn11_2 Zn11_4 2.822824 1_565
Zn11_2 Zn5_2 2.843126 1_555
Zn11_2 Zn9_6 2.934168 1_555
Zn11_2 Zn9_0 2.934168 1_555
Zn11_3 Zn11_5 2.822824 1_565
Zn11_3 Zn11_5 2.822824 1_455
Zn11_3 Zn5_3 2.843126 1_555
Zn11_3 Zn9_7 2.934168 1_555
Zn11_3 Zn9_1 2.934168 1_555
Zn11_4 Zn5_4 2.843126 1_555
Zn11_4 Zn9_6 2.934168 1_545
Zn11_4 Zn9_0 2.934168 1_655
Zn11_5 Zn5_5 2.843126 1_555
Zn11_5 Zn9_7 2.934168 1_545
Zn11_5 Zn9_1 2.934168 1_655
Zn11_6 Zn5_6 2.843126 1_555
Zn11_6 Zn9_2 2.934168 1_655
Zn11_6 Zn9_4 2.934168 1_555
Zn11_7 Zn5_7 2.843126 1_555
Zn11_7 Zn9_3 2.934168 1_655
Zn11_7 Zn9_5 2.934168 1_555
B0_0 Ir1_4 2.140287 1_455
B0_0 Ir1_2 2.140287 1_555
B0_0 Ir8_2 2.213477 1_555
B0_0 Ir8_4 2.213477 1_455
B0_0 Ir7_4 2.220076 1_455
B0_0 Ir7_2 2.220076 1_555
B0_0 Zn3_0 2.649942 1_555
B0_0 Zn4_0 2.660204 1_555
B0_1 Ir1_5 2.140287 1_455
B0_1 Ir1_3 2.140287 1_555
B0_1 Ir8_3 2.213477 1_555
B0_1 Ir8_5 2.213477 1_455
B0_1 Ir7_5 2.220076 1_455
B0_1 Ir7_3 2.220076 1_555
B0_1 Zn3_1 2.649942 1_555
B0_1 Zn4_1 2.660204 1_555
B0_2 Ir1_6 2.140287 1_455
B0_2 Ir1_0 2.140287 1_565
B0_2 Ir8_6 2.213477 1_455
B0_2 Ir8_0 2.213477 1_565
B0_2 Ir7_0 2.220076 1_565
B0_2 Ir7_6 2.220076 1_455
B0_2 Zn3_2 2.649942 1_555
B0_2 Zn4_2 2.660204 1_555
B0_3 Ir1_7 2.140287 1_455
B0_3 Ir1_1 2.140287 1_565
B0_3 Ir8_7 2.213477 1_455
B0_3 Ir8_1 2.213477 1_565
B0_3 Ir7_1 2.220076 1_565
B0_3 Ir7_7 2.220076 1_455
B0_3 Zn3_3 2.649942 1_555
B0_3 Zn4_3 2.660204 1_555
B0_4 Ir1_6 2.140287 1_555
B0_4 Ir1_0 2.140287 1_555
B0_4 Ir8_6 2.213477 1_555
B0_4 Ir8_0 2.213477 1_555
B0_4 Ir7_0 2.220076 1_555
B0_4 Ir7_6 2.220076 1_555
B0_4 Zn3_4 2.649942 1_555
B0_4 Zn4_4 2.660204 1_555
B0_5 Ir1_7 2.140287 1_555
B0_5 Ir1_1 2.140287 1_555
B0_5 Ir8_7 2.213477 1_555
B0_5 Ir8_1 2.213477 1_555
B0_5 Ir7_1 2.220076 1_555
B0_5 Ir7_7 2.220076 1_555
B0_5 Zn3_5 2.649942 1_555
B0_5 Zn4_5 2.660204 1_555
B0_6 Ir1_4 2.140287 1_565
B0_6 Ir1_2 2.140287 1_555
B0_6 Ir8_2 2.213477 1_555
B0_6 Ir8_4 2.213477 1_565
B0_6 Ir7_2 2.220076 1_555
B0_6 Ir7_4 2.220076 1_565
B0_6 Zn3_6 2.649942 1_555
B0_6 Zn4_6 2.660204 1_555
B0_7 Ir1_5 2.140287 1_565
B0_7 Ir1_3 2.140287 1_555
B0_7 Ir8_3 2.213477 1_555
B0_7 Ir8_5 2.213477 1_565
B0_7 Ir7_3 2.220076 1_555
B0_7 Ir7_5 2.220076 1_565
B0_7 Zn3_7 2.649942 1_555
B0_7 Zn4_7 2.660204 1_555
B1_0 Ir0_2 2.140287 1_545
B1_0 Ir0_4 2.140287 1_555
B1_0 Ir9_4 2.213477 1_555
B1_0 Ir9_2 2.213477 1_545
B1_0 Ir6_2 2.220076 1_545
B1_0 Ir6_4 2.220076 1_555
B1_0 Zn2_0 2.649942 1_555
B1_0 Zn5_0 2.660204 1_555
B1_1 Ir0_3 2.140287 1_545
B1_1 Ir0_5 2.140287 1_555
B1_1 Ir9_5 2.213477 1_555
B1_1 Ir9_3 2.213477 1_545
B1_1 Ir6_5 2.220076 1_555
B1_1 Ir6_3 2.220076 1_545
B1_1 Zn2_1 2.649942 1_555
B1_1 Zn5_1 2.660204 1_555
B1_2 Ir0_6 2.140287 1_555
B1_2 Ir0_0 2.140287 1_555
B1_2 Ir9_6 2.213477 1_555
B1_2 Ir9_0 2.213477 1_555
B1_2 Ir6_0 2.220076 1_555
B1_2 Ir6_6 2.220076 1_555
B1_2 Zn2_2 2.649942 1_555
B1_2 Zn5_2 2.660204 1_555
B1_3 Ir0_7 2.140287 1_555
B1_3 Ir0_1 2.140287 1_555
B1_3 Ir9_7 2.213477 1_555
B1_3 Ir9_1 2.213477 1_555
B1_3 Ir6_1 2.220076 1_555
B1_3 Ir6_7 2.220076 1_555
B1_3 Zn2_3 2.649942 1_555
B1_3 Zn5_3 2.660204 1_555
B1_4 Ir0_6 2.140287 1_545
B1_4 Ir0_0 2.140287 1_655
B1_4 Ir9_6 2.213477 1_545
B1_4 Ir9_0 2.213477 1_655
B1_4 Ir6_0 2.220076 1_655
B1_4 Ir6_6 2.220076 1_545
B1_4 Zn2_4 2.649942 1_555
B1_4 Zn5_4 2.660204 1_555
B1_5 Ir0_7 2.140287 1_545
B1_5 Ir0_1 2.140287 1_655
B1_5 Ir9_7 2.213477 1_545
B1_5 Ir9_1 2.213477 1_655
B1_5 Ir6_1 2.220076 1_655
B1_5 Ir6_7 2.220076 1_545
B1_5 Zn2_5 2.649942 1_555
B1_5 Zn5_5 2.660204 1_555
B1_6 Ir0_2 2.140287 1_655
B1_6 Ir0_4 2.140287 1_555
B1_6 Ir9_4 2.213477 1_555
B1_6 Ir9_2 2.213477 1_655
B1_6 Ir6_4 2.220076 1_555
B1_6 Ir6_2 2.220076 1_655
B1_6 Zn2_6 2.649942 1_555
B1_6 Zn5_6 2.660204 1_555
B1_7 Ir0_3 2.140287 1_655
B1_7 Ir0_5 2.140287 1_555
B1_7 Ir9_5 2.213477 1_555
B1_7 Ir9_3 2.213477 1_655
B1_7 Ir6_5 2.220076 1_555
B1_7 Ir6_3 2.220076 1_655
B1_7 Zn2_7 2.649942 1_555
B1_7 Zn5_7 2.660204 1_555
B2_0 Ir3_3 2.140287 1_544
B2_0 Ir3_5 2.140287 1_554
B2_0 Ir10_4 2.213477 1_555
B2_0 Ir10_2 2.213477 1_545
B2_0 Ir6_2 2.220076 1_545
B2_0 Ir6_4 2.220076 1_555
B2_0 Zn1_1 2.649942 1_554
B2_0 Zn11_0 2.660204 1_555
B2_1 Ir3_2 2.140287 1_545
B2_1 Ir3_4 2.140287 1_555
B2_1 Ir10_5 2.213477 1_555
B2_1 Ir10_3 2.213477 1_545
B2_1 Ir6_3 2.220076 1_545
B2_1 Ir6_5 2.220076 1_555
B2_1 Zn1_0 2.649942 1_555
B2_1 Zn11_1 2.660204 1_555
B2_2 Ir3_7 2.140287 1_554
B2_2 Ir3_1 2.140287 1_554
B2_2 Ir10_6 2.213477 1_555
B2_2 Ir10_0 2.213477 1_555
B2_2 Ir6_0 2.220076 1_555
B2_2 Ir6_6 2.220076 1_555
B2_2 Zn1_3 2.649942 1_554
B2_2 Zn11_2 2.660204 1_555
B2_3 Ir3_6 2.140287 1_555
B2_3 Ir3_0 2.140287 1_555
B2_3 Ir10_7 2.213477 1_555
B2_3 Ir10_1 2.213477 1_555
B2_3 Ir6_1 2.220076 1_555
B2_3 Ir6_7 2.220076 1_555
B2_3 Zn1_2 2.649942 1_555
B2_3 Zn11_3 2.660204 1_555
B2_4 Ir3_7 2.140287 1_544
B2_4 Ir3_1 2.140287 1_654
B2_4 Ir10_6 2.213477 1_545
B2_4 Ir10_0 2.213477 1_655
B2_4 Ir6_0 2.220076 1_655
B2_4 Ir6_6 2.220076 1_545
B2_4 Zn1_5 2.649942 1_554
B2_4 Zn11_4 2.660204 1_555
B2_5 Ir3_6 2.140287 1_545
B2_5 Ir3_0 2.140287 1_655
B2_5 Ir10_7 2.213477 1_545
B2_5 Ir10_1 2.213477 1_655
B2_5 Ir6_1 2.220076 1_655
B2_5 Ir6_7 2.220076 1_545
B2_5 Zn1_4 2.649942 1_555
B2_5 Zn11_5 2.660204 1_555
B2_6 Ir3_3 2.140287 1_654
B2_6 Ir3_5 2.140287 1_554
B2_6 Ir10_4 2.213477 1_555
B2_6 Ir10_2 2.213477 1_655
B2_6 Ir6_4 2.220076 1_555
B2_6 Ir6_2 2.220076 1_655
B2_6 Zn1_7 2.649942 1_554
B2_6 Zn11_6 2.660204 1_555
B2_7 Ir3_2 2.140287 1_655
B2_7 Ir3_4 2.140287 1_555
B2_7 Ir10_5 2.213477 1_555
B2_7 Ir10_3 2.213477 1_655
B2_7 Ir6_3 2.220076 1_655
B2_7 Ir6_5 2.220076 1_555
B2_7 Zn1_6 2.649942 1_555
B2_7 Zn11_7 2.660204 1_555
B3_0 Ir2_5 2.140287 1_455
B3_0 Ir2_3 2.140287 1_555
B3_0 Ir11_2 2.213477 1_555
B3_0 Ir11_4 2.213477 1_455
B3_0 Ir7_4 2.220076 1_455
B3_0 Ir7_2 2.220076 1_555
B3_0 Zn0_1 2.649942 1_555
B3_0 Zn10_0 2.660204 1_555
B3_1 Ir2_4 2.140287 1_456
B3_1 Ir2_2 2.140287 1_556
B3_1 Ir11_3 2.213477 1_555
B3_1 Ir11_5 2.213477 1_455
B3_1 Ir7_5 2.220076 1_455
B3_1 Ir7_3 2.220076 1_555
B3_1 Zn0_0 2.649942 1_556
B3_1 Zn10_1 2.660204 1_555
B3_2 Ir2_7 2.140287 1_455
B3_2 Ir2_1 2.140287 1_565
B3_2 Ir11_6 2.213477 1_455
B3_2 Ir11_0 2.213477 1_565
B3_2 Ir7_0 2.220076 1_565
B3_2 Ir7_6 2.220076 1_455
B3_2 Zn0_3 2.649942 1_555
B3_2 Zn10_2 2.660204 1_555
B3_3 Ir2_6 2.140287 1_456
B3_3 Ir2_0 2.140287 1_566
B3_3 Ir11_7 2.213477 1_455
B3_3 Ir11_1 2.213477 1_565
B3_3 Ir7_1 2.220076 1_565
B3_3 Ir7_7 2.220076 1_455
B3_3 Zn0_2 2.649942 1_556
B3_3 Zn10_3 2.660204 1_555
B3_4 Ir2_7 2.140287 1_555
B3_4 Ir2_1 2.140287 1_555
B3_4 Ir11_6 2.213477 1_555
B3_4 Ir11_0 2.213477 1_555
B3_4 Ir7_0 2.220076 1_555
B3_4 Ir7_6 2.220076 1_555
B3_4 Zn0_5 2.649942 1_555
B3_4 Zn10_4 2.660204 1_555
B3_5 Ir2_6 2.140287 1_556
B3_5 Ir2_0 2.140287 1_556
B3_5 Ir11_7 2.213477 1_555
B3_5 Ir11_1 2.213477 1_555
B3_5 Ir7_1 2.220076 1_555
B3_5 Ir7_7 2.220076 1_555
B3_5 Zn0_4 2.649942 1_556
B3_5 Zn10_5 2.660204 1_555
B3_6 Ir2_5 2.140287 1_565
B3_6 Ir2_3 2.140287 1_555
B3_6 Ir11_2 2.213477 1_555
B3_6 Ir11_4 2.213477 1_565
B3_6 Ir7_2 2.220076 1_555
B3_6 Ir7_4 2.220076 1_565
B3_6 Zn0_7 2.649942 1_555
B3_6 Zn10_6 2.660204 1_555
B3_7 Ir2_4 2.140287 1_566
B3_7 Ir2_2 2.140287 1_556
B3_7 Ir11_3 2.213477 1_555
B3_7 Ir11_5 2.213477 1_565
B3_7 Ir7_3 2.220076 1_555
B3_7 Ir7_5 2.220076 1_565
B3_7 Zn0_6 2.649942 1_556
B3_7 Zn10_7 2.660204 1_555
B4_0 Ir4_4 2.132514 1_555
B4_0 Ir4_2 2.132514 1_545
B4_0 Ir10_2 2.209581 1_545
B4_0 Ir9_2 2.209581 1_545
B4_0 Ir10_4 2.209581 1_555
B4_0 Ir9_4 2.209581 1_555
B4_0 Zn6_4 2.765460 1_555
B4_0 Zn7_4 2.765460 1_555
B4_1 Ir4_5 2.132514 1_555
B4_1 Ir4_3 2.132514 1_545
B4_1 Ir9_3 2.209581 1_545
B4_1 Ir9_5 2.209581 1_555
B4_1 Ir10_3 2.209581 1_545
B4_1 Ir10_5 2.209581 1_555
B4_1 Zn7_5 2.765460 1_555
B4_1 Zn6_5 2.765460 1_555
B4_2 Ir4_6 2.132514 1_555
B4_2 Ir4_0 2.132514 1_555
B4_2 Ir10_0 2.209581 1_555
B4_2 Ir9_0 2.209581 1_555
B4_2 Ir10_6 2.209581 1_555
B4_2 Ir9_6 2.209581 1_555
B4_2 Zn6_6 2.765460 1_555
B4_2 Zn7_6 2.765460 1_555
B4_3 Ir4_7 2.132514 1_555
B4_3 Ir4_1 2.132514 1_555
B4_3 Ir9_1 2.209581 1_555
B4_3 Ir9_7 2.209581 1_555
B4_3 Ir10_1 2.209581 1_555
B4_3 Ir10_7 2.209581 1_555
B4_3 Zn7_7 2.765460 1_555
B4_3 Zn6_7 2.765460 1_555
B4_4 Ir4_6 2.132514 1_545
B4_4 Ir4_0 2.132514 1_655
B4_4 Ir9_0 2.209581 1_655
B4_4 Ir10_0 2.209581 1_655
B4_4 Ir9_6 2.209581 1_545
B4_4 Ir10_6 2.209581 1_545
B4_4 Zn7_0 2.765460 1_655
B4_4 Zn6_0 2.765460 1_655
B4_5 Ir4_7 2.132514 1_545
B4_5 Ir4_1 2.132514 1_655
B4_5 Ir9_1 2.209581 1_655
B4_5 Ir10_1 2.209581 1_655
B4_5 Ir9_7 2.209581 1_545
B4_5 Ir10_7 2.209581 1_545
B4_5 Zn7_1 2.765460 1_655
B4_5 Zn6_1 2.765460 1_655
B4_6 Ir4_4 2.132514 1_555
B4_6 Ir4_2 2.132514 1_655
B4_6 Ir10_2 2.209581 1_655
B4_6 Ir9_2 2.209581 1_655
B4_6 Ir10_4 2.209581 1_555
B4_6 Ir9_4 2.209581 1_555
B4_6 Zn7_2 2.765460 1_655
B4_6 Zn6_2 2.765460 1_655
B4_7 Ir4_5 2.132514 1_555
B4_7 Ir4_3 2.132514 1_655
B4_7 Ir9_3 2.209581 1_655
B4_7 Ir10_3 2.209581 1_655
B4_7 Ir9_5 2.209581 1_555
B4_7 Ir10_5 2.209581 1_555
B4_7 Zn7_3 2.765460 1_655
B4_7 Zn6_3 2.765460 1_655
B5_0 Ir5_2 2.132514 1_555
B5_0 Ir5_4 2.132514 1_455
B5_0 Ir8_4 2.209581 1_455
B5_0 Ir8_2 2.209581 1_555
B5_0 Ir11_4 2.209581 1_455
B5_0 Ir11_2 2.209581 1_555
B5_0 Zn7_2 2.765460 1_555
B5_0 Zn6_3 2.765460 1_555
B5_1 Ir5_3 2.132514 1_555
B5_1 Ir5_5 2.132514 1_455
B5_1 Ir11_5 2.209581 1_455
B5_1 Ir11_3 2.209581 1_555
B5_1 Ir8_5 2.209581 1_455
B5_1 Ir8_3 2.209581 1_555
B5_1 Zn6_2 2.765460 1_556
B5_1 Zn7_3 2.765460 1_555
B5_2 Ir5_6 2.132514 1_455
B5_2 Ir5_0 2.132514 1_565
B5_2 Ir8_0 2.209581 1_565
B5_2 Ir11_0 2.209581 1_565
B5_2 Ir8_6 2.209581 1_455
B5_2 Ir11_6 2.209581 1_455
B5_2 Zn6_1 2.765460 1_565
B5_2 Zn7_0 2.765460 1_565
B5_3 Ir5_7 2.132514 1_455
B5_3 Ir5_1 2.132514 1_565
B5_3 Ir11_1 2.209581 1_565
B5_3 Ir8_1 2.209581 1_565
B5_3 Ir11_7 2.209581 1_455
B5_3 Ir8_7 2.209581 1_455
B5_3 Zn6_0 2.765460 1_566
B5_3 Zn7_1 2.765460 1_565
B5_4 Ir5_6 2.132514 1_555
B5_4 Ir5_0 2.132514 1_555
B5_4 Ir8_0 2.209581 1_555
B5_4 Ir11_0 2.209581 1_555
B5_4 Ir8_6 2.209581 1_555
B5_4 Ir11_6 2.209581 1_555
B5_4 Zn6_7 2.765460 1_555
B5_4 Zn7_6 2.765460 1_555
B5_5 Ir5_7 2.132514 1_555
B5_5 Ir5_1 2.132514 1_555
B5_5 Ir11_1 2.209581 1_555
B5_5 Ir11_7 2.209581 1_555
B5_5 Ir8_1 2.209581 1_555
B5_5 Ir8_7 2.209581 1_555
B5_5 Zn6_6 2.765460 1_556
B5_5 Zn7_7 2.765460 1_555
B5_6 Ir5_2 2.132514 1_555
B5_6 Ir5_4 2.132514 1_565
B5_6 Ir8_4 2.209581 1_565
B5_6 Ir11_4 2.209581 1_565
B5_6 Ir8_2 2.209581 1_555
B5_6 Ir11_2 2.209581 1_555
B5_6 Zn6_5 2.765460 1_565
B5_6 Zn7_4 2.765460 1_565
B5_7 Ir5_3 2.132514 1_555
B5_7 Ir5_5 2.132514 1_565
B5_7 Ir11_5 2.209581 1_565
B5_7 Ir8_5 2.209581 1_565
B5_7 Ir11_3 2.209581 1_555
B5_7 Ir8_3 2.209581 1_555
B5_7 Zn6_4 2.765460 1_566
B5_7 Zn7_5 2.765460 1_565
Ir0_0 Zn4_0 2.570563 1_555
Ir0_0 Zn8_2 2.649146 1_555
Ir0_0 Zn8_4 2.649146 1_455
Ir0_0 Zn2_4 2.701203 1_455
Ir0_0 Zn2_2 2.701203 1_555
Ir0_0 Zn5_2 2.753178 1_555
Ir0_0 Zn5_4 2.753178 1_455
Ir0_1 Zn4_1 2.570563 1_555
Ir0_1 Zn8_3 2.649146 1_555
Ir0_1 Zn8_5 2.649146 1_455
Ir0_1 Zn2_5 2.701203 1_455
Ir0_1 Zn2_3 2.701203 1_555
Ir0_1 Zn5_3 2.753178 1_555
Ir0_1 Zn5_5 2.753178 1_455
Ir0_2 Zn4_2 2.570563 1_555
Ir0_2 Zn8_0 2.649146 1_565
Ir0_2 Zn8_6 2.649146 1_455
Ir0_2 Zn2_0 2.701203 1_565
Ir0_2 Zn2_6 2.701203 1_455
Ir0_2 Zn5_6 2.753178 1_455
Ir0_2 Zn5_0 2.753178 1_565
Ir0_3 Zn4_3 2.570563 1_555
Ir0_3 Zn8_1 2.649146 1_565
Ir0_3 Zn8_7 2.649146 1_455
Ir0_3 Zn2_1 2.701203 1_565
Ir0_3 Zn2_7 2.701203 1_455
Ir0_3 Zn5_7 2.753178 1_455
Ir0_3 Zn5_1 2.753178 1_565
Ir0_4 Zn4_4 2.570563 1_555
Ir0_4 Zn8_0 2.649146 1_555
Ir0_4 Zn8_6 2.649146 1_555
Ir0_4 Zn2_0 2.701203 1_555
Ir0_4 Zn2_6 2.701203 1_555
Ir0_4 Zn5_6 2.753178 1_555
Ir0_4 Zn5_0 2.753178 1_555
Ir0_5 Zn4_5 2.570563 1_555
Ir0_5 Zn8_1 2.649146 1_555
Ir0_5 Zn8_7 2.649146 1_555
Ir0_5 Zn2_1 2.701203 1_555
Ir0_5 Zn2_7 2.701203 1_555
Ir0_5 Zn5_7 2.753178 1_555
Ir0_5 Zn5_1 2.753178 1_555
Ir0_6 Zn4_6 2.570563 1_555
Ir0_6 Zn8_2 2.649146 1_555
Ir0_6 Zn8_4 2.649146 1_565
Ir0_6 Zn2_4 2.701203 1_565
Ir0_6 Zn2_2 2.701203 1_555
Ir0_6 Zn5_2 2.753178 1_555
Ir0_6 Zn5_4 2.753178 1_565
Ir0_7 Zn4_7 2.570563 1_555
Ir0_7 Zn8_3 2.649146 1_555
Ir0_7 Zn8_5 2.649146 1_565
Ir0_7 Zn2_3 2.701203 1_555
Ir0_7 Zn2_5 2.701203 1_565
Ir0_7 Zn5_3 2.753178 1_555
Ir0_7 Zn5_5 2.753178 1_565
Ir1_0 Zn5_0 2.570563 1_555
Ir1_0 Zn9_4 2.649146 1_555
Ir1_0 Zn9_2 2.649146 1_545
Ir1_0 Zn3_4 2.701203 1_555
Ir1_0 Zn3_2 2.701203 1_545
Ir1_0 Zn4_4 2.753178 1_555
Ir1_0 Zn4_2 2.753178 1_545
Ir1_1 Zn5_1 2.570563 1_555
Ir1_1 Zn9_5 2.649146 1_555
Ir1_1 Zn9_3 2.649146 1_545
Ir1_1 Zn3_5 2.701203 1_555
Ir1_1 Zn3_3 2.701203 1_545
Ir1_1 Zn4_5 2.753178 1_555
Ir1_1 Zn4_3 2.753178 1_545
Ir1_2 Zn5_2 2.570563 1_555
Ir1_2 Zn9_0 2.649146 1_555
Ir1_2 Zn9_6 2.649146 1_555
Ir1_2 Zn3_6 2.701203 1_555
Ir1_2 Zn3_0 2.701203 1_555
Ir1_2 Zn4_6 2.753178 1_555
Ir1_2 Zn4_0 2.753178 1_555
Ir1_3 Zn5_3 2.570563 1_555
Ir1_3 Zn9_1 2.649146 1_555
Ir1_3 Zn9_7 2.649146 1_555
Ir1_3 Zn3_1 2.701203 1_555
Ir1_3 Zn3_7 2.701203 1_555
Ir1_3 Zn4_7 2.753178 1_555
Ir1_3 Zn4_1 2.753178 1_555
Ir1_4 Zn5_4 2.570563 1_555
Ir1_4 Zn9_0 2.649146 1_655
Ir1_4 Zn9_6 2.649146 1_545
Ir1_4 Zn3_0 2.701203 1_655
Ir1_4 Zn3_6 2.701203 1_545
Ir1_4 Zn4_6 2.753178 1_545
Ir1_4 Zn4_0 2.753178 1_655
Ir1_5 Zn5_5 2.570563 1_555
Ir1_5 Zn9_1 2.649146 1_655
Ir1_5 Zn9_7 2.649146 1_545
Ir1_5 Zn3_1 2.701203 1_655
Ir1_5 Zn3_7 2.701203 1_545
Ir1_5 Zn4_7 2.753178 1_545
Ir1_5 Zn4_1 2.753178 1_655
Ir1_6 Zn5_6 2.570563 1_555
Ir1_6 Zn9_4 2.649146 1_555
Ir1_6 Zn9_2 2.649146 1_655
Ir1_6 Zn3_4 2.701203 1_555
Ir1_6 Zn3_2 2.701203 1_655
Ir1_6 Zn4_4 2.753178 1_555
Ir1_6 Zn4_2 2.753178 1_655
Ir1_7 Zn5_7 2.570563 1_555
Ir1_7 Zn9_5 2.649146 1_555
Ir1_7 Zn9_3 2.649146 1_655
Ir1_7 Zn3_3 2.701203 1_655
Ir1_7 Zn3_5 2.701203 1_555
Ir1_7 Zn4_5 2.753178 1_555
Ir1_7 Zn4_3 2.753178 1_655
Ir2_0 Zn11_0 2.570563 1_555
Ir2_0 Zn9_4 2.649146 1_555
Ir2_0 Zn9_2 2.649146 1_545
Ir2_0 Zn0_4 2.701203 1_555
Ir2_0 Zn0_2 2.701203 1_545
Ir2_0 Zn10_5 2.753178 1_554
Ir2_0 Zn10_3 2.753178 1_544
Ir2_1 Zn11_1 2.570563 1_555
Ir2_1 Zn9_5 2.649146 1_555
Ir2_1 Zn9_3 2.649146 1_545
Ir2_1 Zn0_5 2.701203 1_555
Ir2_1 Zn0_3 2.701203 1_545
Ir2_1 Zn10_4 2.753178 1_555
Ir2_1 Zn10_2 2.753178 1_545
Ir2_2 Zn11_2 2.570563 1_555
Ir2_2 Zn9_0 2.649146 1_555
Ir2_2 Zn9_6 2.649146 1_555
Ir2_2 Zn0_6 2.701203 1_555
Ir2_2 Zn0_0 2.701203 1_555
Ir2_2 Zn10_7 2.753178 1_554
Ir2_2 Zn10_1 2.753178 1_554
Ir2_3 Zn11_3 2.570563 1_555
Ir2_3 Zn9_1 2.649146 1_555
Ir2_3 Zn9_7 2.649146 1_555
Ir2_3 Zn0_7 2.701203 1_555
Ir2_3 Zn0_1 2.701203 1_555
Ir2_3 Zn10_6 2.753178 1_555
Ir2_3 Zn10_0 2.753178 1_555
Ir2_4 Zn11_4 2.570563 1_555
Ir2_4 Zn9_6 2.649146 1_545
Ir2_4 Zn9_0 2.649146 1_655
Ir2_4 Zn0_0 2.701203 1_655
Ir2_4 Zn0_6 2.701203 1_545
Ir2_4 Zn10_7 2.753178 1_544
Ir2_4 Zn10_1 2.753178 1_654
Ir2_5 Zn11_5 2.570563 1_555
Ir2_5 Zn9_1 2.649146 1_655
Ir2_5 Zn9_7 2.649146 1_545
Ir2_5 Zn0_1 2.701203 1_655
Ir2_5 Zn0_7 2.701203 1_545
Ir2_5 Zn10_6 2.753178 1_545
Ir2_5 Zn10_0 2.753178 1_655
Ir2_6 Zn11_6 2.570563 1_555
Ir2_6 Zn9_4 2.649146 1_555
Ir2_6 Zn9_2 2.649146 1_655
Ir2_6 Zn0_2 2.701203 1_655
Ir2_6 Zn0_4 2.701203 1_555
Ir2_6 Zn10_5 2.753178 1_554
Ir2_6 Zn10_3 2.753178 1_654
Ir2_7 Zn11_7 2.570563 1_555
Ir2_7 Zn9_5 2.649146 1_555
Ir2_7 Zn9_3 2.649146 1_655
Ir2_7 Zn0_5 2.701203 1_555
Ir2_7 Zn0_3 2.701203 1_655
Ir2_7 Zn10_4 2.753178 1_555
Ir2_7 Zn10_2 2.753178 1_655
Ir3_0 Zn10_0 2.570563 1_555
Ir3_0 Zn8_2 2.649146 1_555
Ir3_0 Zn8_4 2.649146 1_455
Ir3_0 Zn1_4 2.701203 1_455
Ir3_0 Zn1_2 2.701203 1_555
Ir3_0 Zn11_3 2.753178 1_555
Ir3_0 Zn11_5 2.753178 1_455
Ir3_1 Zn10_1 2.570563 1_555
Ir3_1 Zn8_3 2.649146 1_555
Ir3_1 Zn8_5 2.649146 1_455
Ir3_1 Zn1_5 2.701203 1_455
Ir3_1 Zn1_3 2.701203 1_555
Ir3_1 Zn11_2 2.753178 1_556
Ir3_1 Zn11_4 2.753178 1_456
Ir3_2 Zn10_2 2.570563 1_555
Ir3_2 Zn8_0 2.649146 1_565
Ir3_2 Zn8_6 2.649146 1_455
Ir3_2 Zn1_0 2.701203 1_565
Ir3_2 Zn1_6 2.701203 1_455
Ir3_2 Zn11_7 2.753178 1_455
Ir3_2 Zn11_1 2.753178 1_565
Ir3_3 Zn10_3 2.570563 1_555
Ir3_3 Zn8_1 2.649146 1_565
Ir3_3 Zn8_7 2.649146 1_455
Ir3_3 Zn1_1 2.701203 1_565
Ir3_3 Zn1_7 2.701203 1_455
Ir3_3 Zn11_6 2.753178 1_456
Ir3_3 Zn11_0 2.753178 1_566
Ir3_4 Zn10_4 2.570563 1_555
Ir3_4 Zn8_0 2.649146 1_555
Ir3_4 Zn8_6 2.649146 1_555
Ir3_4 Zn1_6 2.701203 1_555
Ir3_4 Zn1_0 2.701203 1_555
Ir3_4 Zn11_7 2.753178 1_555
Ir3_4 Zn11_1 2.753178 1_555
Ir3_5 Zn10_5 2.570563 1_555
Ir3_5 Zn8_1 2.649146 1_555
Ir3_5 Zn8_7 2.649146 1_555
Ir3_5 Zn1_1 2.701203 1_555
Ir3_5 Zn1_7 2.701203 1_555
Ir3_5 Zn11_6 2.753178 1_556
Ir3_5 Zn11_0 2.753178 1_556
Ir3_6 Zn10_6 2.570563 1_555
Ir3_6 Zn8_2 2.649146 1_555
Ir3_6 Zn8_4 2.649146 1_565
Ir3_6 Zn1_4 2.701203 1_565
Ir3_6 Zn1_2 2.701203 1_555
Ir3_6 Zn11_3 2.753178 1_555
Ir3_6 Zn11_5 2.753178 1_565
Ir3_7 Zn10_7 2.570563 1_555
Ir3_7 Zn8_3 2.649146 1_555
Ir3_7 Zn8_5 2.649146 1_565
Ir3_7 Zn1_3 2.701203 1_555
Ir3_7 Zn1_5 2.701203 1_565
Ir3_7 Zn11_2 2.753178 1_556
Ir3_7 Zn11_4 2.753178 1_566
Ir4_0 Zn3_4 2.667205 1_555
Ir4_0 Zn0_4 2.667205 1_555
Ir4_0 Zn0_2 2.667205 1_545
Ir4_0 Zn3_2 2.667205 1_545
Ir4_0 Zn6_0 2.959118 1_555
Ir4_0 Zn7_0 2.959118 1_555
Ir4_0 Zn7_6 2.959118 1_555
Ir4_0 Zn6_6 2.959118 1_555
Ir4_1 Zn3_5 2.667205 1_555
Ir4_1 Zn3_3 2.667205 1_545
Ir4_1 Zn0_5 2.667205 1_555
Ir4_1 Zn0_3 2.667205 1_545
Ir4_1 Zn7_7 2.959118 1_555
Ir4_1 Zn7_1 2.959118 1_555
Ir4_1 Zn6_7 2.959118 1_555
Ir4_1 Zn6_1 2.959118 1_555
Ir4_2 Zn0_0 2.667205 1_555
Ir4_2 Zn3_0 2.667205 1_555
Ir4_2 Zn3_6 2.667205 1_555
Ir4_2 Zn0_6 2.667205 1_555
Ir4_2 Zn6_2 2.959118 1_555
Ir4_2 Zn7_2 2.959118 1_555
Ir4_2 Zn6_4 2.959118 1_565
Ir4_2 Zn7_4 2.959118 1_565
Ir4_3 Zn3_1 2.667205 1_555
Ir4_3 Zn3_7 2.667205 1_555
Ir4_3 Zn0_1 2.667205 1_555
Ir4_3 Zn0_7 2.667205 1_555
Ir4_3 Zn7_3 2.959118 1_555
Ir4_3 Zn7_5 2.959118 1_565
Ir4_3 Zn6_3 2.959118 1_555
Ir4_3 Zn6_5 2.959118 1_565
Ir4_4 Zn3_0 2.667205 1_655
Ir4_4 Zn0_0 2.667205 1_655
Ir4_4 Zn3_6 2.667205 1_545
Ir4_4 Zn0_6 2.667205 1_545
Ir4_4 Zn6_4 2.959118 1_555
Ir4_4 Zn7_2 2.959118 1_655
Ir4_4 Zn6_2 2.959118 1_655
Ir4_4 Zn7_4 2.959118 1_555
Ir4_5 Zn3_1 2.667205 1_655
Ir4_5 Zn3_7 2.667205 1_545
Ir4_5 Zn0_1 2.667205 1_655
Ir4_5 Zn0_7 2.667205 1_545
Ir4_5 Zn7_3 2.959118 1_655
Ir4_5 Zn7_5 2.959118 1_555
Ir4_5 Zn6_5 2.959118 1_555
Ir4_5 Zn6_3 2.959118 1_655
Ir4_6 Zn0_2 2.667205 1_655
Ir4_6 Zn0_4 2.667205 1_555
Ir4_6 Zn3_2 2.667205 1_655
Ir4_6 Zn3_4 2.667205 1_555
Ir4_6 Zn6_0 2.959118 1_665
Ir4_6 Zn7_0 2.959118 1_665
Ir4_6 Zn7_6 2.959118 1_555
Ir4_6 Zn6_6 2.959118 1_555
Ir4_7 Zn3_3 2.667205 1_655
Ir4_7 Zn3_5 2.667205 1_555
Ir4_7 Zn0_3 2.667205 1_655
Ir4_7 Zn0_5 2.667205 1_555
Ir4_7 Zn7_1 2.959118 1_665
Ir4_7 Zn7_7 2.959118 1_555
Ir4_7 Zn6_1 2.959118 1_665
Ir4_7 Zn6_7 2.959118 1_555
Ir5_0 Zn2_2 2.667205 1_555
Ir5_0 Zn2_4 2.667205 1_455
Ir5_0 Zn1_2 2.667205 1_555
Ir5_0 Zn1_4 2.667205 1_455
Ir5_0 Zn6_1 2.959118 1_555
Ir5_0 Zn6_7 2.959118 1_555
Ir5_0 Zn7_0 2.959118 1_555
Ir5_0 Zn7_6 2.959118 1_555
Ir5_1 Zn1_3 2.667205 1_555
Ir5_1 Zn1_5 2.667205 1_455
Ir5_1 Zn2_3 2.667205 1_555
Ir5_1 Zn2_5 2.667205 1_455
Ir5_1 Zn6_6 2.959118 1_556
Ir5_1 Zn6_0 2.959118 1_556
Ir5_1 Zn7_7 2.959118 1_555
Ir5_1 Zn7_1 2.959118 1_555
Ir5_2 Zn2_0 2.667205 1_565
Ir5_2 Zn2_6 2.667205 1_455
Ir5_2 Zn1_0 2.667205 1_565
Ir5_2 Zn1_6 2.667205 1_455
Ir5_2 Zn7_2 2.959118 1_555
Ir5_2 Zn6_5 2.959118 1_565
Ir5_2 Zn7_4 2.959118 1_565
Ir5_2 Zn6_3 2.959118 1_555
Ir5_3 Zn1_1 2.667205 1_565
Ir5_3 Zn1_7 2.667205 1_455
Ir5_3 Zn2_1 2.667205 1_565
Ir5_3 Zn2_7 2.667205 1_455
Ir5_3 Zn6_2 2.959118 1_556
Ir5_3 Zn6_4 2.959118 1_566
Ir5_3 Zn7_3 2.959118 1_555
Ir5_3 Zn7_5 2.959118 1_565
Ir5_4 Zn2_0 2.667205 1_555
Ir5_4 Zn2_6 2.667205 1_555
Ir5_4 Zn1_6 2.667205 1_555
Ir5_4 Zn1_0 2.667205 1_555
Ir5_4 Zn7_2 2.959118 1_655
Ir5_4 Zn6_5 2.959118 1_555
Ir5_4 Zn6_3 2.959118 1_655
Ir5_4 Zn7_4 2.959118 1_555
Ir5_5 Zn1_1 2.667205 1_555
Ir5_5 Zn1_7 2.667205 1_555
Ir5_5 Zn2_1 2.667205 1_555
Ir5_5 Zn2_7 2.667205 1_555
Ir5_5 Zn6_4 2.959118 1_556
Ir5_5 Zn6_2 2.959118 1_656
Ir5_5 Zn7_3 2.959118 1_655
Ir5_5 Zn7_5 2.959118 1_555
Ir5_6 Zn2_2 2.667205 1_555
Ir5_6 Zn2_4 2.667205 1_565
Ir5_6 Zn1_2 2.667205 1_555
Ir5_6 Zn1_4 2.667205 1_565
Ir5_6 Zn7_0 2.959118 1_665
Ir5_6 Zn6_7 2.959118 1_555
Ir5_6 Zn7_6 2.959118 1_555
Ir5_6 Zn6_1 2.959118 1_665
Ir5_7 Zn1_3 2.667205 1_555
Ir5_7 Zn1_5 2.667205 1_565
Ir5_7 Zn2_3 2.667205 1_555
Ir5_7 Zn2_5 2.667205 1_565
Ir5_7 Zn6_6 2.959118 1_556
Ir5_7 Zn6_0 2.959118 1_666
Ir5_7 Zn7_1 2.959118 1_665
Ir5_7 Zn7_7 2.959118 1_555
Ir6_0 Zn11_2 2.683936 1_555
Ir6_0 Zn5_2 2.683936 1_555
Ir6_0 Zn5_4 2.683936 1_455
Ir6_0 Zn11_4 2.683936 1_455
Ir6_1 Zn5_3 2.683936 1_555
Ir6_1 Zn11_3 2.683936 1_555
Ir6_1 Zn5_5 2.683936 1_455
Ir6_1 Zn11_5 2.683936 1_455
Ir6_2 Zn11_6 2.683936 1_455
Ir6_2 Zn5_6 2.683936 1_455
Ir6_2 Zn5_0 2.683936 1_565
Ir6_2 Zn11_0 2.683936 1_565
Ir6_3 Zn5_7 2.683936 1_455
Ir6_3 Zn11_7 2.683936 1_455
Ir6_3 Zn5_1 2.683936 1_565
Ir6_3 Zn11_1 2.683936 1_565
Ir6_4 Zn5_6 2.683936 1_555
Ir6_4 Zn11_6 2.683936 1_555
Ir6_4 Zn11_0 2.683936 1_555
Ir6_4 Zn5_0 2.683936 1_555
Ir6_5 Zn5_7 2.683936 1_555
Ir6_5 Zn5_1 2.683936 1_555
Ir6_5 Zn11_7 2.683936 1_555
Ir6_5 Zn11_1 2.683936 1_555
Ir6_6 Zn5_2 2.683936 1_555
Ir6_6 Zn11_2 2.683936 1_555
Ir6_6 Zn11_4 2.683936 1_565
Ir6_6 Zn5_4 2.683936 1_565
Ir6_7 Zn5_3 2.683936 1_555
Ir6_7 Zn11_3 2.683936 1_555
Ir6_7 Zn5_5 2.683936 1_565
Ir6_7 Zn11_5 2.683936 1_565
Ir7_0 Zn4_4 2.683936 1_555
Ir7_0 Zn10_4 2.683936 1_555
Ir7_0 Zn4_2 2.683936 1_545
Ir7_0 Zn10_2 2.683936 1_545
Ir7_1 Zn10_5 2.683936 1_555
Ir7_1 Zn4_5 2.683936 1_555
Ir7_1 Zn10_3 2.683936 1_545
Ir7_1 Zn4_3 2.683936 1_545
Ir7_2 Zn4_6 2.683936 1_555
Ir7_2 Zn10_6 2.683936 1_555
Ir7_2 Zn4_0 2.683936 1_555
Ir7_2 Zn10_0 2.683936 1_555
Ir7_3 Zn10_7 2.683936 1_555
Ir7_3 Zn4_7 2.683936 1_555
Ir7_3 Zn10_1 2.683936 1_555
Ir7_3 Zn4_1 2.683936 1_555
Ir7_4 Zn4_6 2.683936 1_545
Ir7_4 Zn10_6 2.683936 1_545
Ir7_4 Zn4_0 2.683936 1_655
Ir7_4 Zn10_0 2.683936 1_655
Ir7_5 Zn10_7 2.683936 1_545
Ir7_5 Zn4_7 2.683936 1_545
Ir7_5 Zn10_1 2.683936 1_655
Ir7_5 Zn4_1 2.683936 1_655
Ir7_6 Zn4_4 2.683936 1_555
Ir7_6 Zn10_4 2.683936 1_555
Ir7_6 Zn4_2 2.683936 1_655
Ir7_6 Zn10_2 2.683936 1_655
Ir7_7 Zn10_5 2.683936 1_555
Ir7_7 Zn4_5 2.683936 1_555
Ir7_7 Zn10_3 2.683936 1_655
Ir7_7 Zn4_3 2.683936 1_655
Ir8_0 Zn7_6 2.671224 1_555
Ir8_0 Zn7_0 2.671224 1_555
Ir8_0 Zn3_4 2.747661 1_555
Ir8_0 Zn3_2 2.747661 1_545
Ir8_1 Zn7_7 2.671224 1_555
Ir8_1 Zn7_1 2.671224 1_555
Ir8_1 Zn3_5 2.747661 1_555
Ir8_1 Zn3_3 2.747661 1_545
Ir8_2 Zn7_4 2.671224 1_565
Ir8_2 Zn7_2 2.671224 1_555
Ir8_2 Zn3_0 2.747661 1_555
Ir8_2 Zn3_6 2.747661 1_555
Ir8_3 Zn7_3 2.671224 1_555
Ir8_3 Zn7_5 2.671224 1_565
Ir8_3 Zn3_7 2.747661 1_555
Ir8_3 Zn3_1 2.747661 1_555
Ir8_4 Zn7_4 2.671224 1_555
Ir8_4 Zn7_2 2.671224 1_655
Ir8_4 Zn3_6 2.747661 1_545
Ir8_4 Zn3_0 2.747661 1_655
Ir8_5 Zn7_3 2.671224 1_655
Ir8_5 Zn7_5 2.671224 1_555
Ir8_5 Zn3_7 2.747661 1_545
Ir8_5 Zn3_1 2.747661 1_655
Ir8_6 Zn7_0 2.671224 1_665
Ir8_6 Zn7_6 2.671224 1_555
Ir8_6 Zn3_2 2.747661 1_655
Ir8_6 Zn3_4 2.747661 1_555
Ir8_7 Zn7_1 2.671224 1_665
Ir8_7 Zn7_7 2.671224 1_555
Ir8_7 Zn3_3 2.747661 1_655
Ir8_7 Zn3_5 2.747661 1_555
Ir9_0 Zn7_6 2.671224 1_555
Ir9_0 Zn7_0 2.671224 1_555
Ir9_0 Zn2_2 2.747661 1_555
Ir9_0 Zn2_4 2.747661 1_455
Ir9_1 Zn7_1 2.671224 1_555
Ir9_1 Zn7_7 2.671224 1_555
Ir9_1 Zn2_3 2.747661 1_555
Ir9_1 Zn2_5 2.747661 1_455
Ir9_2 Zn7_2 2.671224 1_555
Ir9_2 Zn7_4 2.671224 1_565
Ir9_2 Zn2_6 2.747661 1_455
Ir9_2 Zn2_0 2.747661 1_565
Ir9_3 Zn7_3 2.671224 1_555
Ir9_3 Zn7_5 2.671224 1_565
Ir9_3 Zn2_7 2.747661 1_455
Ir9_3 Zn2_1 2.747661 1_565
Ir9_4 Zn7_2 2.671224 1_655
Ir9_4 Zn7_4 2.671224 1_555
Ir9_4 Zn2_6 2.747661 1_555
Ir9_4 Zn2_0 2.747661 1_555
Ir9_5 Zn7_3 2.671224 1_655
Ir9_5 Zn7_5 2.671224 1_555
Ir9_5 Zn2_7 2.747661 1_555
Ir9_5 Zn2_1 2.747661 1_555
Ir9_6 Zn7_0 2.671224 1_665
Ir9_6 Zn7_6 2.671224 1_555
Ir9_6 Zn2_4 2.747661 1_565
Ir9_6 Zn2_2 2.747661 1_555
Ir9_7 Zn7_1 2.671224 1_665
Ir9_7 Zn7_7 2.671224 1_555
Ir9_7 Zn2_3 2.747661 1_555
Ir9_7 Zn2_5 2.747661 1_565
Ir10_0 Zn6_6 2.671224 1_555
Ir10_0 Zn6_0 2.671224 1_555
Ir10_0 Zn1_3 2.747661 1_554
Ir10_0 Zn1_5 2.747661 1_454
Ir10_1 Zn6_7 2.671224 1_555
Ir10_1 Zn6_1 2.671224 1_555
Ir10_1 Zn1_2 2.747661 1_555
Ir10_1 Zn1_4 2.747661 1_455
Ir10_2 Zn6_4 2.671224 1_565
Ir10_2 Zn6_2 2.671224 1_555
Ir10_2 Zn1_7 2.747661 1_454
Ir10_2 Zn1_1 2.747661 1_564
Ir10_3 Zn6_5 2.671224 1_565
Ir10_3 Zn6_3 2.671224 1_555
Ir10_3 Zn1_6 2.747661 1_455
Ir10_3 Zn1_0 2.747661 1_565
Ir10_4 Zn6_4 2.671224 1_555
Ir10_4 Zn6_2 2.671224 1_655
Ir10_4 Zn1_7 2.747661 1_554
Ir10_4 Zn1_1 2.747661 1_554
Ir10_5 Zn6_3 2.671224 1_655
Ir10_5 Zn6_5 2.671224 1_555
Ir10_5 Zn1_6 2.747661 1_555
Ir10_5 Zn1_0 2.747661 1_555
Ir10_6 Zn6_0 2.671224 1_665
Ir10_6 Zn6_6 2.671224 1_555
Ir10_6 Zn1_5 2.747661 1_564
Ir10_6 Zn1_3 2.747661 1_554
Ir10_7 Zn6_1 2.671224 1_665
Ir10_7 Zn6_7 2.671224 1_555
Ir10_7 Zn1_4 2.747661 1_565
Ir10_7 Zn1_2 2.747661 1_555
Ir11_0 Zn6_7 2.671224 1_555
Ir11_0 Zn6_1 2.671224 1_555
Ir11_0 Zn0_3 2.747661 1_545
Ir11_0 Zn0_5 2.747661 1_555
Ir11_1 Zn6_6 2.671224 1_556
Ir11_1 Zn6_0 2.671224 1_556
Ir11_1 Zn0_4 2.747661 1_556
Ir11_1 Zn0_2 2.747661 1_546
Ir11_2 Zn6_5 2.671224 1_565
Ir11_2 Zn6_3 2.671224 1_555
Ir11_2 Zn0_1 2.747661 1_555
Ir11_2 Zn0_7 2.747661 1_555
Ir11_3 Zn6_2 2.671224 1_556
Ir11_3 Zn6_4 2.671224 1_566
Ir11_3 Zn0_6 2.747661 1_556
Ir11_3 Zn0_0 2.747661 1_556
Ir11_4 Zn6_5 2.671224 1_555
Ir11_4 Zn6_3 2.671224 1_655
Ir11_4 Zn0_7 2.747661 1_545
Ir11_4 Zn0_1 2.747661 1_655
Ir11_5 Zn6_4 2.671224 1_556
Ir11_5 Zn6_2 2.671224 1_656
Ir11_5 Zn0_6 2.747661 1_546
Ir11_5 Zn0_0 2.747661 1_656
Ir11_6 Zn6_1 2.671224 1_665
Ir11_6 Zn6_7 2.671224 1_555
Ir11_6 Zn0_3 2.747661 1_655
Ir11_6 Zn0_5 2.747661 1_555
Ir11_7 Zn6_0 2.671224 1_666
Ir11_7 Zn6_6 2.671224 1_556
Ir11_7 Zn0_2 2.747661 1_656
Ir11_7 Zn0_4 2.747661 1_556
