# generated using pymatgen
data_Zn12Pt7
_symmetry_space_group_name_H-M   'P 1'
_cell_length_a   5.55505090
_cell_length_b   13.96148431
_cell_length_c   57.55811794
_cell_angle_alpha   89.99684005
_cell_angle_beta   90.00000079
_cell_angle_gamma   90.00000584
_symmetry_Int_Tables_number   1
_chemical_formula_structural   Zn12Pt7
_chemical_formula_sum   'Zn192 Pt112'
_cell_volume   4464.02089969
_cell_formula_units_Z   16
loop_
 _symmetry_equiv_pos_site_id
 _symmetry_equiv_pos_as_xyz
  1  'x, y, z'
loop_
 _atom_site_type_symbol
 _atom_site_label
 _atom_site_symmetry_multiplicity
 _atom_site_fract_x
 _atom_site_fract_y
 _atom_site_fract_z
 _atom_site_occupancy
  Zn  Zn0_0  1  0.24999992  0.43810263  0.03568836  1
  Zn  Zn0_1  1  0.24999992  0.43810263  0.53568836  1
  Zn  Zn0_2  1  0.24999992  0.93810264  0.03568836  1
  Zn  Zn0_3  1  0.24999992  0.93810263  0.53568836  1
  Zn  Zn0_4  1  0.74999992  0.43810263  0.03568836  1
  Zn  Zn0_5  1  0.74999992  0.43810263  0.53568836  1
  Zn  Zn0_6  1  0.74999992  0.93810264  0.03568836  1
  Zn  Zn0_7  1  0.74999992  0.93810263  0.53568836  1
  Zn  Zn1_0  1  0.25000000  0.06189526  0.46433697  1
  Zn  Zn1_1  1  0.25000000  0.06189526  0.96433697  1
  Zn  Zn1_2  1  0.25000000  0.56189526  0.46433697  1
  Zn  Zn1_3  1  0.25000000  0.56189526  0.96433697  1
  Zn  Zn1_4  1  0.75000000  0.06189526  0.46433697  1
  Zn  Zn1_5  1  0.75000000  0.06189526  0.96433697  1
  Zn  Zn1_6  1  0.75000000  0.56189526  0.46433697  1
  Zn  Zn1_7  1  0.75000000  0.56189526  0.96433697  1
  Zn  Zn2_0  1  0.25000002  0.18807757  0.21431477  1
  Zn  Zn2_1  1  0.25000002  0.18807757  0.71431477  1
  Zn  Zn2_2  1  0.25000002  0.68807757  0.21431477  1
  Zn  Zn2_3  1  0.25000002  0.68807757  0.71431477  1
  Zn  Zn2_4  1  0.75000002  0.18807757  0.21431477  1
  Zn  Zn2_5  1  0.75000002  0.18807757  0.71431477  1
  Zn  Zn2_6  1  0.75000002  0.68807757  0.21431477  1
  Zn  Zn2_7  1  0.75000002  0.68807757  0.71431477  1
  Zn  Zn3_0  1  0.25000064  0.31188881  0.28564222  1
  Zn  Zn3_1  1  0.25000064  0.31188881  0.78564222  1
  Zn  Zn3_2  1  0.25000064  0.81188881  0.28564222  1
  Zn  Zn3_3  1  0.25000064  0.81188881  0.78564221  1
  Zn  Zn3_4  1  0.75000064  0.31188881  0.28564221  1
  Zn  Zn3_5  1  0.75000064  0.31188881  0.78564221  1
  Zn  Zn3_6  1  0.75000064  0.81188881  0.28564222  1
  Zn  Zn3_7  1  0.75000064  0.81188882  0.78564221  1
  Zn  Zn4_0  1  0.24999997  0.43105745  0.10806108  1
  Zn  Zn4_1  1  0.24999997  0.43105745  0.60806109  1
  Zn  Zn4_2  1  0.24999997  0.93105746  0.10806109  1
  Zn  Zn4_3  1  0.24999997  0.93105745  0.60806108  1
  Zn  Zn4_4  1  0.74999997  0.43105745  0.10806108  1
  Zn  Zn4_5  1  0.74999997  0.43105745  0.60806108  1
  Zn  Zn4_6  1  0.74999997  0.93105746  0.10806108  1
  Zn  Zn4_7  1  0.74999997  0.93105745  0.60806108  1
  Zn  Zn5_0  1  0.24999999  0.06895486  0.39195233  1
  Zn  Zn5_1  1  0.25000000  0.06895486  0.89195233  1
  Zn  Zn5_2  1  0.24999999  0.56895486  0.39195233  1
  Zn  Zn5_3  1  0.25000000  0.56895486  0.89195233  1
  Zn  Zn5_4  1  0.74999999  0.06895486  0.39195233  1
  Zn  Zn5_5  1  0.74999999  0.06895486  0.89195233  1
  Zn  Zn5_6  1  0.75000000  0.56895486  0.39195233  1
  Zn  Zn5_7  1  0.75000000  0.56895486  0.89195233  1
  Zn  Zn6_0  1  0.25000005  0.18108890  0.14198798  1
  Zn  Zn6_1  1  0.25000004  0.18108890  0.64198797  1
  Zn  Zn6_2  1  0.25000004  0.68108890  0.14198798  1
  Zn  Zn6_3  1  0.25000004  0.68108890  0.64198797  1
  Zn  Zn6_4  1  0.75000005  0.18108890  0.14198798  1
  Zn  Zn6_5  1  0.75000004  0.18108890  0.64198797  1
  Zn  Zn6_6  1  0.75000004  0.68108890  0.14198798  1
  Zn  Zn6_7  1  0.75000004  0.68108890  0.64198798  1
  Zn  Zn7_0  1  0.24999998  0.31889346  0.35801881  1
  Zn  Zn7_1  1  0.24999998  0.31889346  0.85801881  1
  Zn  Zn7_2  1  0.24999998  0.81889346  0.35801881  1
  Zn  Zn7_3  1  0.24999998  0.81889346  0.85801881  1
  Zn  Zn7_4  1  0.74999998  0.31889346  0.35801881  1
  Zn  Zn7_5  1  0.74999998  0.31889346  0.85801881  1
  Zn  Zn7_6  1  0.74999998  0.81889346  0.35801881  1
  Zn  Zn7_7  1  0.74999998  0.81889346  0.85801881  1
  Zn  Zn8_0  1  0.25000000  0.40850717  0.24609048  1
  Zn  Zn8_1  1  0.25000000  0.40850717  0.74609048  1
  Zn  Zn8_2  1  0.25000000  0.90850717  0.24609048  1
  Zn  Zn8_3  1  0.25000000  0.90850717  0.74609048  1
  Zn  Zn8_4  1  0.75000000  0.40850717  0.24609048  1
  Zn  Zn8_5  1  0.75000000  0.40850717  0.74609048  1
  Zn  Zn8_6  1  0.75000000  0.90850717  0.24609048  1
  Zn  Zn8_7  1  0.75000000  0.90850717  0.74609048  1
  Zn  Zn9_0  1  0.25000000  0.09150867  0.25385546  1
  Zn  Zn9_1  1  0.25000000  0.09150867  0.75385546  1
  Zn  Zn9_2  1  0.25000000  0.59150867  0.25385546  1
  Zn  Zn9_3  1  0.25000001  0.59150868  0.75385546  1
  Zn  Zn9_4  1  0.75000000  0.09150867  0.25385546  1
  Zn  Zn9_5  1  0.75000000  0.09150867  0.75385546  1
  Zn  Zn9_6  1  0.75000000  0.59150867  0.25385546  1
  Zn  Zn9_7  1  0.75000000  0.59150867  0.75385546  1
  Zn  Zn10_0  1  0.25000000  0.15850351  0.00390283  1
  Zn  Zn10_1  1  0.25000001  0.15850351  0.50390283  1
  Zn  Zn10_2  1  0.25000000  0.65850351  0.00390283  1
  Zn  Zn10_3  1  0.25000001  0.65850351  0.50390283  1
  Zn  Zn10_4  1  0.75000001  0.15850351  0.00390283  1
  Zn  Zn10_5  1  0.75000000  0.15850351  0.50390283  1
  Zn  Zn10_6  1  0.75000000  0.65850351  0.00390283  1
  Zn  Zn10_7  1  0.75000000  0.65850351  0.50390283  1
  Zn  Zn11_0  1  0.24999998  0.34151507  0.49612717  1
  Zn  Zn11_1  1  0.24999998  0.34151507  0.99612717  1
  Zn  Zn11_2  1  0.24999998  0.84151507  0.49612717  1
  Zn  Zn11_3  1  0.24999998  0.84151507  0.99612717  1
  Zn  Zn11_4  1  0.74999998  0.34151507  0.49612717  1
  Zn  Zn11_5  1  0.74999998  0.34151507  0.99612717  1
  Zn  Zn11_6  1  0.74999998  0.84151507  0.49612717  1
  Zn  Zn11_7  1  0.74999998  0.84151507  0.99612717  1
  Zn  Zn12_0  1  0.24999995  0.31579223  0.07162020  1
  Zn  Zn12_1  1  0.24999995  0.31579223  0.57162020  1
  Zn  Zn12_2  1  0.24999995  0.81579223  0.07162020  1
  Zn  Zn12_3  1  0.24999995  0.81579223  0.57162020  1
  Zn  Zn12_4  1  0.74999995  0.31579223  0.07162020  1
  Zn  Zn12_5  1  0.74999995  0.31579223  0.57162020  1
  Zn  Zn12_6  1  0.74999995  0.81579223  0.07162020  1
  Zn  Zn12_7  1  0.74999995  0.81579223  0.57162020  1
  Zn  Zn13_0  1  0.25000001  0.18419278  0.42839690  1
  Zn  Zn13_1  1  0.25000001  0.18419278  0.92839690  1
  Zn  Zn13_2  1  0.25000001  0.68419279  0.42839690  1
  Zn  Zn13_3  1  0.25000001  0.68419278  0.92839690  1
  Zn  Zn13_4  1  0.75000001  0.18419278  0.42839690  1
  Zn  Zn13_5  1  0.75000001  0.18419278  0.92839690  1
  Zn  Zn13_6  1  0.75000001  0.68419279  0.42839690  1
  Zn  Zn13_7  1  0.75000001  0.68419278  0.92839690  1
  Zn  Zn14_0  1  0.24999998  0.37280805  0.44958659  1
  Zn  Zn14_1  1  0.24999999  0.37280805  0.94958659  1
  Zn  Zn14_2  1  0.24999999  0.87280804  0.44958659  1
  Zn  Zn14_3  1  0.24999999  0.87280805  0.94958659  1
  Zn  Zn14_4  1  0.74999999  0.37280804  0.44958659  1
  Zn  Zn14_5  1  0.74999999  0.37280805  0.94958659  1
  Zn  Zn14_6  1  0.74999999  0.87280804  0.44958659  1
  Zn  Zn14_7  1  0.74999998  0.87280804  0.94958659  1
  Zn  Zn15_0  1  0.24999992  0.12719892  0.05043353  1
  Zn  Zn15_1  1  0.24999992  0.12719892  0.55043353  1
  Zn  Zn15_2  1  0.24999992  0.62719892  0.05043353  1
  Zn  Zn15_3  1  0.24999992  0.62719892  0.55043353  1
  Zn  Zn15_4  1  0.74999992  0.12719892  0.05043353  1
  Zn  Zn15_5  1  0.74999992  0.12719892  0.55043353  1
  Zn  Zn15_6  1  0.74999992  0.62719892  0.05043353  1
  Zn  Zn15_7  1  0.74999992  0.62719892  0.55043353  1
  Zn  Zn16_0  1  0.24999998  0.12282304  0.30038261  1
  Zn  Zn16_1  1  0.24999998  0.12282304  0.80038261  1
  Zn  Zn16_2  1  0.24999998  0.62282304  0.30038261  1
  Zn  Zn16_3  1  0.24999998  0.62282304  0.80038261  1
  Zn  Zn16_4  1  0.74999998  0.12282304  0.30038261  1
  Zn  Zn16_5  1  0.74999998  0.12282304  0.80038261  1
  Zn  Zn16_6  1  0.74999998  0.62282304  0.30038261  1
  Zn  Zn16_7  1  0.74999998  0.62282304  0.80038261  1
  Zn  Zn17_0  1  0.25000000  0.37716983  0.19959278  1
  Zn  Zn17_1  1  0.25000000  0.37716983  0.69959277  1
  Zn  Zn17_2  1  0.25000000  0.87716983  0.19959278  1
  Zn  Zn17_3  1  0.25000000  0.87716983  0.69959277  1
  Zn  Zn17_4  1  0.75000000  0.37716983  0.19959278  1
  Zn  Zn17_5  1  0.75000000  0.37716983  0.69959277  1
  Zn  Zn17_6  1  0.75000000  0.87716983  0.19959278  1
  Zn  Zn17_7  1  0.75000000  0.87716983  0.69959277  1
  Zn  Zn18_0  1  0.25000002  0.38479141  0.40040423  1
  Zn  Zn18_1  1  0.25000002  0.38479140  0.90040423  1
  Zn  Zn18_2  1  0.25000001  0.88479140  0.40040423  1
  Zn  Zn18_3  1  0.25000002  0.88479140  0.90040423  1
  Zn  Zn18_4  1  0.75000002  0.38479141  0.40040423  1
  Zn  Zn18_5  1  0.75000002  0.38479141  0.90040423  1
  Zn  Zn18_6  1  0.75000002  0.88479141  0.40040423  1
  Zn  Zn18_7  1  0.75000001  0.88479140  0.90040423  1
  Zn  Zn19_0  1  0.24999996  0.11522478  0.09960255  1
  Zn  Zn19_1  1  0.24999996  0.11522478  0.59960254  1
  Zn  Zn19_2  1  0.24999996  0.61522478  0.09960255  1
  Zn  Zn19_3  1  0.24999996  0.61522478  0.59960254  1
  Zn  Zn19_4  1  0.74999996  0.11522478  0.09960255  1
  Zn  Zn19_5  1  0.74999996  0.11522478  0.59960254  1
  Zn  Zn19_6  1  0.74999996  0.61522478  0.09960254  1
  Zn  Zn19_7  1  0.74999996  0.61522478  0.59960254  1
  Zn  Zn20_0  1  0.24999999  0.13470327  0.34955589  1
  Zn  Zn20_1  1  0.24999999  0.13470327  0.84955589  1
  Zn  Zn20_2  1  0.24999999  0.63470327  0.34955589  1
  Zn  Zn20_3  1  0.24999999  0.63470327  0.84955589  1
  Zn  Zn20_4  1  0.74999999  0.13470327  0.34955589  1
  Zn  Zn20_5  1  0.74999999  0.13470327  0.84955589  1
  Zn  Zn20_6  1  0.74999999  0.63470327  0.34955589  1
  Zn  Zn20_7  1  0.74999999  0.63470327  0.84955589  1
  Zn  Zn21_0  1  0.24999998  0.36529287  0.15044299  1
  Zn  Zn21_1  1  0.24999999  0.36529287  0.65044299  1
  Zn  Zn21_2  1  0.24999999  0.86529287  0.15044299  1
  Zn  Zn21_3  1  0.24999999  0.86529287  0.65044300  1
  Zn  Zn21_4  1  0.74999998  0.36529287  0.15044299  1
  Zn  Zn21_5  1  0.74999998  0.36529287  0.65044299  1
  Zn  Zn21_6  1  0.74999998  0.86529287  0.15044299  1
  Zn  Zn21_7  1  0.74999998  0.86529287  0.65044299  1
  Zn  Zn22_0  1  0.24999993  0.43419726  0.32158448  1
  Zn  Zn22_1  1  0.24999993  0.43419726  0.82158448  1
  Zn  Zn22_2  1  0.24999993  0.93419726  0.32158448  1
  Zn  Zn22_3  1  0.24999993  0.93419726  0.82158448  1
  Zn  Zn22_4  1  0.74999993  0.43419726  0.32158448  1
  Zn  Zn22_5  1  0.74999993  0.43419726  0.82158448  1
  Zn  Zn22_6  1  0.74999993  0.93419726  0.32158448  1
  Zn  Zn22_7  1  0.74999993  0.93419726  0.82158449  1
  Zn  Zn23_0  1  0.24999996  0.06578584  0.17840650  1
  Zn  Zn23_1  1  0.24999996  0.06578584  0.67840650  1
  Zn  Zn23_2  1  0.24999996  0.56578584  0.17840650  1
  Zn  Zn23_3  1  0.24999996  0.56578584  0.67840650  1
  Zn  Zn23_4  1  0.74999996  0.06578584  0.17840650  1
  Zn  Zn23_5  1  0.74999996  0.06578584  0.67840650  1
  Zn  Zn23_6  1  0.74999996  0.56578584  0.17840650  1
  Zn  Zn23_7  1  0.74999996  0.56578584  0.67840650  1
  Pt  Pt0_0  1  0.99999987  0.26860593  0.03367793  1
  Pt  Pt0_1  1  0.99999987  0.26860593  0.53367793  1
  Pt  Pt0_2  1  0.99999987  0.76860592  0.03367793  1
  Pt  Pt0_3  1  0.99999987  0.76860593  0.53367793  1
  Pt  Pt0_4  1  0.49999987  0.26860593  0.03367793  1
  Pt  Pt0_5  1  0.49999987  0.26860593  0.53367793  1
  Pt  Pt0_6  1  0.49999987  0.76860592  0.03367793  1
  Pt  Pt0_7  1  0.49999987  0.76860593  0.53367793  1
  Pt  Pt1_0  1  0.99999996  0.23139109  0.46632486  1
  Pt  Pt1_1  1  0.99999996  0.23139109  0.96632486  1
  Pt  Pt1_2  1  0.99999996  0.73139109  0.46632486  1
  Pt  Pt1_3  1  0.99999996  0.73139109  0.96632486  1
  Pt  Pt1_4  1  0.49999996  0.23139109  0.46632486  1
  Pt  Pt1_5  1  0.49999996  0.23139109  0.96632486  1
  Pt  Pt1_6  1  0.49999996  0.73139109  0.46632486  1
  Pt  Pt1_7  1  0.49999996  0.73139109  0.96632486  1
  Pt  Pt2_0  1  0.99999998  0.01860966  0.21631201  1
  Pt  Pt2_1  1  0.99999998  0.01860966  0.71631201  1
  Pt  Pt2_2  1  0.99999998  0.51860966  0.21631201  1
  Pt  Pt2_3  1  0.99999998  0.51860966  0.71631201  1
  Pt  Pt2_4  1  0.49999998  0.01860966  0.21631201  1
  Pt  Pt2_5  1  0.49999998  0.01860966  0.71631201  1
  Pt  Pt2_6  1  0.49999998  0.51860966  0.21631201  1
  Pt  Pt2_7  1  0.49999998  0.51860966  0.71631201  1
  Pt  Pt3_0  1  0.00000003  0.48138743  0.28364459  1
  Pt  Pt3_1  1  0.00000003  0.48138743  0.78364458  1
  Pt  Pt3_2  1  0.00000003  0.98138742  0.28364458  1
  Pt  Pt3_3  1  0.00000003  0.98138743  0.78364458  1
  Pt  Pt3_4  1  0.50000003  0.48138743  0.28364458  1
  Pt  Pt3_5  1  0.50000003  0.48138743  0.78364458  1
  Pt  Pt3_6  1  0.50000003  0.98138742  0.28364459  1
  Pt  Pt3_7  1  0.50000003  0.98138743  0.78364458  1
  Pt  Pt4_0  1  0.99999996  0.27040651  0.10950993  1
  Pt  Pt4_1  1  0.99999996  0.27040651  0.60950993  1
  Pt  Pt4_2  1  0.99999996  0.77040651  0.10950993  1
  Pt  Pt4_3  1  0.99999996  0.77040651  0.60950993  1
  Pt  Pt4_4  1  0.49999996  0.27040651  0.10950993  1
  Pt  Pt4_5  1  0.49999996  0.27040651  0.60950993  1
  Pt  Pt4_6  1  0.49999996  0.77040651  0.10950993  1
  Pt  Pt4_7  1  0.49999996  0.77040651  0.60950993  1
  Pt  Pt5_0  1  0.00000006  0.22960276  0.39054193  1
  Pt  Pt5_1  1  0.00000006  0.22960276  0.89054192  1
  Pt  Pt5_2  1  0.00000006  0.72960276  0.39054192  1
  Pt  Pt5_3  1  0.00000006  0.72960276  0.89054192  1
  Pt  Pt5_4  1  0.50000006  0.22960276  0.39054192  1
  Pt  Pt5_5  1  0.50000006  0.22960276  0.89054192  1
  Pt  Pt5_6  1  0.50000006  0.72960276  0.39054193  1
  Pt  Pt5_7  1  0.50000006  0.72960276  0.89054192  1
  Pt  Pt6_0  1  0.99999993  0.02045989  0.14055980  1
  Pt  Pt6_1  1  0.99999993  0.02045989  0.64055980  1
  Pt  Pt6_2  1  0.99999993  0.52045988  0.14055980  1
  Pt  Pt6_3  1  0.99999993  0.52045988  0.64055979  1
  Pt  Pt6_4  1  0.49999993  0.02045989  0.14055980  1
  Pt  Pt6_5  1  0.49999993  0.02045988  0.64055979  1
  Pt  Pt6_6  1  0.49999993  0.52045988  0.14055980  1
  Pt  Pt6_7  1  0.49999993  0.52045988  0.64055979  1
  Pt  Pt7_0  1  0.99999987  0.47954998  0.35946772  1
  Pt  Pt7_1  1  0.99999987  0.47954998  0.85946773  1
  Pt  Pt7_2  1  0.99999987  0.97954999  0.35946772  1
  Pt  Pt7_3  1  0.99999987  0.97954998  0.85946772  1
  Pt  Pt7_4  1  0.49999987  0.47954998  0.35946772  1
  Pt  Pt7_5  1  0.49999987  0.47954998  0.85946773  1
  Pt  Pt7_6  1  0.49999987  0.97954999  0.35946773  1
  Pt  Pt7_7  1  0.49999987  0.97954998  0.85946772  1
  Pt  Pt8_0  1  0.00000013  0.24781525  0.17787756  1
  Pt  Pt8_1  1  0.00000014  0.24781525  0.67787756  1
  Pt  Pt8_2  1  0.00000014  0.74781524  0.17787756  1
  Pt  Pt8_3  1  0.00000014  0.74781524  0.67787756  1
  Pt  Pt8_4  1  0.50000013  0.24781525  0.17787756  1
  Pt  Pt8_5  1  0.50000013  0.24781525  0.67787756  1
  Pt  Pt8_6  1  0.50000013  0.74781524  0.17787756  1
  Pt  Pt8_7  1  0.50000013  0.74781524  0.67787756  1
  Pt  Pt9_0  1  0.00000002  0.25217956  0.32210609  1
  Pt  Pt9_1  1  0.00000001  0.25217956  0.82210609  1
  Pt  Pt9_2  1  0.00000002  0.75217957  0.32210609  1
  Pt  Pt9_3  1  0.00000001  0.75217956  0.82210609  1
  Pt  Pt9_4  1  0.50000002  0.25217956  0.32210609  1
  Pt  Pt9_5  1  0.50000002  0.25217956  0.82210609  1
  Pt  Pt9_6  1  0.50000002  0.75217956  0.32210609  1
  Pt  Pt9_7  1  0.50000001  0.75217956  0.82210609  1
  Pt  Pt10_0  1  0.99999975  0.49780276  0.07215119  1
  Pt  Pt10_1  1  0.99999975  0.49780276  0.57215119  1
  Pt  Pt10_2  1  0.99999975  0.99780276  0.07215119  1
  Pt  Pt10_3  1  0.99999975  0.99780276  0.57215119  1
  Pt  Pt10_4  1  0.49999975  0.49780276  0.07215119  1
  Pt  Pt10_5  1  0.49999975  0.49780276  0.57215119  1
  Pt  Pt10_6  1  0.49999975  0.99780276  0.07215119  1
  Pt  Pt10_7  1  0.49999975  0.99780276  0.57215119  1
  Pt  Pt11_0  1  0.00000011  0.00220191  0.42787550  1
  Pt  Pt11_1  1  0.00000011  0.00220191  0.92787550  1
  Pt  Pt11_2  1  0.00000011  0.50220191  0.42787550  1
  Pt  Pt11_3  1  0.00000011  0.50220191  0.92787550  1
  Pt  Pt11_4  1  0.50000011  0.00220191  0.42787550  1
  Pt  Pt11_5  1  0.50000011  0.00220191  0.92787550  1
  Pt  Pt11_6  1  0.50000011  0.50220191  0.42787550  1
  Pt  Pt11_7  1  0.50000011  0.50220191  0.92787550  1
  Pt  Pt12_0  1  0.00000014  0.25000950  0.24996459  1
  Pt  Pt12_1  1  0.00000014  0.25000950  0.74996458  1
  Pt  Pt12_2  1  0.00000013  0.75000950  0.24996459  1
  Pt  Pt12_3  1  0.00000013  0.75000950  0.74996458  1
  Pt  Pt12_4  1  0.50000013  0.25000950  0.24996459  1
  Pt  Pt12_5  1  0.50000013  0.25000950  0.74996458  1
  Pt  Pt12_6  1  0.50000013  0.75000950  0.24996459  1
  Pt  Pt12_7  1  0.50000013  0.75000950  0.74996459  1
  Pt  Pt13_0  1  0.99999992  0.00000360  0.99999808  1
  Pt  Pt13_1  1  0.99999992  0.00000360  0.49999808  1
  Pt  Pt13_2  1  0.99999992  0.50000360  0.99999808  1
  Pt  Pt13_3  1  0.99999992  0.50000360  0.49999808  1
  Pt  Pt13_4  1  0.49999992  0.00000360  0.99999808  1
  Pt  Pt13_5  1  0.49999992  0.00000360  0.49999808  1
  Pt  Pt13_6  1  0.49999992  0.50000360  0.99999808  1
  Pt  Pt13_7  1  0.49999992  0.50000360  0.49999808  1
loop_
_geom_bond_atom_site_label_1
_geom_bond_atom_site_label_2
_geom_bond_distance
_geom_bond_site_symmetry_2
Zn0_0 Zn11_1 2.646478 1_554
Zn0_0 Zn12_0 2.681967 1_555
Zn0_0 Zn15_2 2.773173 1_555
Zn0_0 Zn0_4 2.777525 1_555
Zn0_0 Zn0_4 2.777525 1_455
Zn0_1 Zn11_0 2.646478 1_555
Zn0_1 Zn12_1 2.681967 1_555
Zn0_1 Zn15_3 2.773173 1_555
Zn0_1 Zn0_5 2.777525 1_455
Zn0_1 Zn0_5 2.777525 1_555
Zn0_2 Zn11_3 2.646478 1_554
Zn0_2 Zn12_2 2.681967 1_555
Zn0_2 Zn15_0 2.773173 1_565
Zn0_2 Zn0_6 2.777525 1_455
Zn0_2 Zn0_6 2.777525 1_555
Zn0_3 Zn11_2 2.646478 1_555
Zn0_3 Zn12_3 2.681967 1_555
Zn0_3 Zn15_1 2.773173 1_565
Zn0_3 Zn0_7 2.777525 1_555
Zn0_3 Zn0_7 2.777525 1_455
Zn0_4 Zn11_5 2.646478 1_554
Zn0_4 Zn12_4 2.681967 1_555
Zn0_4 Zn15_6 2.773173 1_555
Zn0_5 Zn11_4 2.646478 1_555
Zn0_5 Zn12_5 2.681967 1_555
Zn0_5 Zn15_7 2.773173 1_555
Zn0_6 Zn11_7 2.646478 1_554
Zn0_6 Zn12_6 2.681967 1_555
Zn0_6 Zn15_4 2.773173 1_565
Zn0_7 Zn11_6 2.646478 1_555
Zn0_7 Zn12_7 2.681967 1_555
Zn0_7 Zn15_5 2.773173 1_565
Zn1_0 Zn1_4 2.777525 1_455
Zn1_0 Zn1_4 2.777525 1_555
Zn1_1 Zn1_5 2.777525 1_555
Zn1_1 Zn1_5 2.777525 1_455
Zn1_2 Zn1_6 2.777525 1_555
Zn1_2 Zn1_6 2.777525 1_455
Zn1_3 Zn1_7 2.777525 1_455
Zn1_3 Zn1_7 2.777525 1_555
Zn2_0 Zn9_0 2.645202 1_555
Zn2_0 Zn2_4 2.777525 1_555
Zn2_0 Zn2_4 2.777525 1_455
Zn2_1 Zn9_1 2.645202 1_555
Zn2_1 Zn2_5 2.777525 1_555
Zn2_1 Zn2_5 2.777525 1_455
Zn2_2 Zn9_2 2.645202 1_555
Zn2_2 Zn2_6 2.777525 1_555
Zn2_2 Zn2_6 2.777525 1_455
Zn2_3 Zn9_3 2.645202 1_555
Zn2_3 Zn2_7 2.777525 1_555
Zn2_3 Zn2_7 2.777525 1_455
Zn2_4 Zn9_4 2.645202 1_555
Zn2_5 Zn9_5 2.645202 1_555
Zn2_6 Zn9_6 2.645202 1_555
Zn2_7 Zn9_7 2.645202 1_555
Zn3_0 Zn8_0 2.646100 1_555
Zn3_0 Zn3_4 2.777525 1_555
Zn3_0 Zn3_4 2.777525 1_455
Zn3_1 Zn8_1 2.646100 1_555
Zn3_1 Zn3_5 2.777525 1_555
Zn3_1 Zn3_5 2.777525 1_455
Zn3_2 Zn8_2 2.646100 1_555
Zn3_2 Zn3_6 2.777525 1_455
Zn3_2 Zn3_6 2.777525 1_555
Zn3_3 Zn8_3 2.646100 1_555
Zn3_3 Zn3_7 2.777525 1_455
Zn3_3 Zn3_7 2.777525 1_555
Zn3_4 Zn8_4 2.646100 1_555
Zn3_5 Zn8_5 2.646100 1_555
Zn3_6 Zn8_6 2.646100 1_555
Zn3_7 Zn8_7 2.646100 1_555
Zn8_0 Zn9_2 2.593793 1_555
Zn8_0 Zn8_4 2.777525 1_555
Zn8_0 Zn8_4 2.777525 1_455
Zn8_1 Zn9_3 2.593793 1_555
Zn8_1 Zn8_5 2.777525 1_555
Zn8_1 Zn8_5 2.777525 1_455
Zn8_2 Zn9_0 2.593793 1_565
Zn8_2 Zn8_6 2.777525 1_555
Zn8_2 Zn8_6 2.777525 1_455
Zn8_3 Zn9_1 2.593793 1_565
Zn8_3 Zn8_7 2.777525 1_555
Zn8_3 Zn8_7 2.777525 1_455
Zn8_4 Zn9_6 2.593793 1_555
Zn8_5 Zn9_7 2.593793 1_555
Zn8_6 Zn9_4 2.593793 1_565
Zn8_7 Zn9_5 2.593793 1_565
Zn9_0 Zn9_4 2.777525 1_455
Zn9_0 Zn9_4 2.777525 1_555
Zn9_1 Zn9_5 2.777525 1_555
Zn9_1 Zn9_5 2.777525 1_455
Zn9_2 Zn9_6 2.777525 1_555
Zn9_2 Zn9_6 2.777525 1_455
Zn9_3 Zn9_7 2.777525 1_555
Zn9_3 Zn9_7 2.777525 1_455
Zn10_0 Zn11_1 2.593989 1_554
Zn10_0 Zn1_1 2.646856 1_554
Zn10_0 Zn15_0 2.713623 1_555
Zn10_0 Zn10_4 2.777525 1_455
Zn10_0 Zn10_4 2.777525 1_555
Zn10_1 Zn11_0 2.593989 1_555
Zn10_1 Zn1_0 2.646856 1_555
Zn10_1 Zn15_1 2.713623 1_555
Zn10_1 Zn10_5 2.777525 1_555
Zn10_1 Zn10_5 2.777525 1_455
Zn10_2 Zn11_3 2.593989 1_554
Zn10_2 Zn1_3 2.646856 1_554
Zn10_2 Zn15_2 2.713623 1_555
Zn10_2 Zn10_6 2.777525 1_455
Zn10_2 Zn10_6 2.777525 1_555
Zn10_3 Zn11_2 2.593989 1_555
Zn10_3 Zn1_2 2.646856 1_555
Zn10_3 Zn15_3 2.713623 1_555
Zn10_3 Zn10_7 2.777525 1_555
Zn10_3 Zn10_7 2.777525 1_455
Zn10_4 Zn11_5 2.593989 1_554
Zn10_4 Zn1_5 2.646856 1_554
Zn10_4 Zn15_4 2.713623 1_555
Zn10_5 Zn11_4 2.593989 1_555
Zn10_5 Zn1_4 2.646856 1_555
Zn10_5 Zn15_5 2.713623 1_555
Zn10_6 Zn11_7 2.593989 1_554
Zn10_6 Zn1_7 2.646856 1_554
Zn10_6 Zn15_6 2.713623 1_555
Zn10_7 Zn11_6 2.593989 1_555
Zn10_7 Zn1_6 2.646856 1_555
Zn10_7 Zn15_7 2.713623 1_555
Zn11_0 Zn14_0 2.714159 1_555
Zn11_0 Zn11_4 2.777525 1_555
Zn11_0 Zn11_4 2.777525 1_455
Zn11_1 Zn14_1 2.714159 1_555
Zn11_1 Zn11_5 2.777525 1_555
Zn11_1 Zn11_5 2.777525 1_455
Zn11_2 Zn14_2 2.714159 1_555
Zn11_2 Zn11_6 2.777525 1_555
Zn11_2 Zn11_6 2.777525 1_455
Zn11_3 Zn14_3 2.714159 1_555
Zn11_3 Zn11_7 2.777525 1_555
Zn11_3 Zn11_7 2.777525 1_455
Zn11_4 Zn14_4 2.714159 1_555
Zn11_5 Zn14_5 2.714159 1_555
Zn11_6 Zn14_6 2.714159 1_555
Zn11_7 Zn14_7 2.714159 1_555
Zn12_0 Zn4_0 2.643768 1_555
Zn12_0 Zn12_4 2.777525 1_555
Zn12_0 Zn12_4 2.777525 1_455
Zn12_0 Zn15_0 2.901786 1_555
Zn12_1 Zn4_1 2.643768 1_555
Zn12_1 Zn12_5 2.777525 1_455
Zn12_1 Zn12_5 2.777525 1_555
Zn12_1 Zn15_1 2.901786 1_555
Zn12_2 Zn4_2 2.643768 1_555
Zn12_2 Zn12_6 2.777525 1_455
Zn12_2 Zn12_6 2.777525 1_555
Zn12_2 Zn15_2 2.901786 1_555
Zn12_3 Zn4_3 2.643768 1_555
Zn12_3 Zn12_7 2.777525 1_555
Zn12_3 Zn12_7 2.777525 1_455
Zn12_3 Zn15_3 2.901786 1_555
Zn12_4 Zn4_4 2.643768 1_555
Zn12_4 Zn15_4 2.901786 1_555
Zn12_5 Zn4_5 2.643768 1_555
Zn12_5 Zn15_5 2.901786 1_555
Zn12_6 Zn4_6 2.643768 1_555
Zn12_6 Zn15_6 2.901786 1_555
Zn12_7 Zn4_7 2.643768 1_555
Zn12_7 Zn15_7 2.901786 1_555
Zn13_0 Zn5_0 2.643704 1_555
Zn13_0 Zn1_0 2.682218 1_555
Zn13_0 Zn13_4 2.777525 1_555
Zn13_0 Zn13_4 2.777525 1_455
Zn13_0 Zn14_0 2.902137 1_555
Zn13_1 Zn5_1 2.643704 1_555
Zn13_1 Zn1_1 2.682218 1_555
Zn13_1 Zn13_5 2.777525 1_555
Zn13_1 Zn13_5 2.777525 1_455
Zn13_1 Zn14_1 2.902137 1_555
Zn13_2 Zn5_2 2.643704 1_555
Zn13_2 Zn1_2 2.682218 1_555
Zn13_2 Zn13_6 2.777525 1_555
Zn13_2 Zn13_6 2.777525 1_455
Zn13_2 Zn14_2 2.902137 1_555
Zn13_3 Zn5_3 2.643704 1_555
Zn13_3 Zn1_3 2.682218 1_555
Zn13_3 Zn13_7 2.777525 1_555
Zn13_3 Zn13_7 2.777525 1_455
Zn13_3 Zn14_3 2.902137 1_555
Zn13_4 Zn5_4 2.643704 1_555
Zn13_4 Zn1_4 2.682218 1_555
Zn13_4 Zn14_4 2.902137 1_555
Zn13_5 Zn5_5 2.643704 1_555
Zn13_5 Zn1_5 2.682218 1_555
Zn13_5 Zn14_5 2.902137 1_555
Zn13_6 Zn5_6 2.643704 1_555
Zn13_6 Zn1_6 2.682218 1_555
Zn13_6 Zn14_6 2.902137 1_555
Zn13_7 Zn5_7 2.643704 1_555
Zn13_7 Zn1_7 2.682218 1_555
Zn13_7 Zn14_7 2.902137 1_555
Zn14_0 Zn1_2 2.773144 1_555
Zn14_1 Zn1_3 2.773144 1_555
Zn14_2 Zn1_0 2.773144 1_565
Zn14_3 Zn1_1 2.773144 1_565
Zn14_4 Zn1_6 2.773144 1_555
Zn14_5 Zn1_7 2.773144 1_555
Zn14_6 Zn1_4 2.773144 1_565
Zn14_7 Zn1_5 2.773144 1_565
Zn16_0 Zn9_0 2.713491 1_555
Zn16_0 Zn3_0 2.772594 1_555
Zn16_0 Zn22_2 2.902443 1_545
Zn16_1 Zn9_1 2.713491 1_555
Zn16_1 Zn3_1 2.772594 1_555
Zn16_1 Zn22_3 2.902443 1_545
Zn16_2 Zn9_2 2.713491 1_555
Zn16_2 Zn3_2 2.772594 1_555
Zn16_2 Zn22_0 2.902443 1_555
Zn16_3 Zn9_3 2.713491 1_555
Zn16_3 Zn3_3 2.772594 1_555
Zn16_3 Zn22_1 2.902443 1_555
Zn16_4 Zn9_4 2.713491 1_555
Zn16_4 Zn3_4 2.772594 1_555
Zn16_4 Zn22_6 2.902443 1_545
Zn16_5 Zn9_5 2.713491 1_555
Zn16_5 Zn3_5 2.772594 1_555
Zn16_5 Zn22_7 2.902443 1_545
Zn16_6 Zn9_6 2.713491 1_555
Zn16_6 Zn3_6 2.772594 1_555
Zn16_6 Zn22_4 2.902443 1_555
Zn16_7 Zn9_7 2.713491 1_555
Zn16_7 Zn3_7 2.772594 1_555
Zn16_7 Zn22_5 2.902443 1_555
Zn17_0 Zn8_0 2.711870 1_555
Zn17_0 Zn2_0 2.772622 1_555
Zn17_0 Zn23_2 2.901942 1_555
Zn17_1 Zn8_1 2.711870 1_555
Zn17_1 Zn2_1 2.772622 1_555
Zn17_1 Zn23_3 2.901942 1_555
Zn17_2 Zn8_2 2.711870 1_555
Zn17_2 Zn2_2 2.772622 1_555
Zn17_2 Zn23_0 2.901942 1_565
Zn17_3 Zn8_3 2.711870 1_555
Zn17_3 Zn2_3 2.772622 1_555
Zn17_3 Zn23_1 2.901942 1_565
Zn17_4 Zn8_4 2.711870 1_555
Zn17_4 Zn2_4 2.772622 1_555
Zn17_4 Zn23_6 2.901942 1_555
Zn17_5 Zn8_5 2.711870 1_555
Zn17_5 Zn2_5 2.772622 1_555
Zn17_5 Zn23_7 2.901942 1_555
Zn17_6 Zn8_6 2.711870 1_555
Zn17_6 Zn2_6 2.772622 1_555
Zn17_6 Zn23_4 2.901942 1_565
Zn17_7 Zn8_7 2.711870 1_555
Zn17_7 Zn2_7 2.772622 1_555
Zn17_7 Zn23_5 2.901942 1_565
Zn22_0 Zn7_0 2.643655 1_555
Zn22_0 Zn3_0 2.682558 1_555
Zn22_0 Zn22_4 2.777525 1_555
Zn22_0 Zn22_4 2.777525 1_455
Zn22_1 Zn7_1 2.643655 1_555
Zn22_1 Zn3_1 2.682558 1_555
Zn22_1 Zn22_5 2.777525 1_455
Zn22_1 Zn22_5 2.777525 1_555
Zn22_2 Zn7_2 2.643655 1_555
Zn22_2 Zn3_2 2.682558 1_555
Zn22_2 Zn22_6 2.777525 1_555
Zn22_2 Zn22_6 2.777525 1_455
Zn22_3 Zn7_3 2.643655 1_555
Zn22_3 Zn3_3 2.682558 1_555
Zn22_3 Zn22_7 2.777525 1_455
Zn22_3 Zn22_7 2.777525 1_555
Zn22_4 Zn7_4 2.643655 1_555
Zn22_4 Zn3_4 2.682558 1_555
Zn22_5 Zn7_5 2.643655 1_555
Zn22_5 Zn3_5 2.682558 1_555
Zn22_6 Zn7_6 2.643655 1_555
Zn22_6 Zn3_6 2.682558 1_555
Zn22_7 Zn7_7 2.643655 1_555
Zn22_7 Zn3_7 2.682558 1_555
Zn23_0 Zn6_0 2.642928 1_555
Zn23_0 Zn2_0 2.680901 1_555
Zn23_0 Zn23_4 2.777525 1_555
Zn23_0 Zn23_4 2.777525 1_455
Zn23_1 Zn6_1 2.642928 1_555
Zn23_1 Zn2_1 2.680901 1_555
Zn23_1 Zn23_5 2.777525 1_555
Zn23_1 Zn23_5 2.777525 1_455
Zn23_2 Zn6_2 2.642928 1_555
Zn23_2 Zn2_2 2.680901 1_555
Zn23_2 Zn23_6 2.777525 1_555
Zn23_2 Zn23_6 2.777525 1_455
Zn23_3 Zn6_3 2.642928 1_555
Zn23_3 Zn2_3 2.680901 1_555
Zn23_3 Zn23_7 2.777525 1_555
Zn23_3 Zn23_7 2.777525 1_455
Zn23_4 Zn6_4 2.642928 1_555
Zn23_4 Zn2_4 2.680901 1_555
Zn23_5 Zn6_5 2.642928 1_555
Zn23_5 Zn2_5 2.680901 1_555
Zn23_6 Zn6_6 2.642928 1_555
Zn23_6 Zn2_6 2.680901 1_555
Zn23_7 Zn6_7 2.642928 1_555
Zn23_7 Zn2_7 2.680901 1_555
Pt0_0 Zn15_4 2.599274 1_555
Pt0_0 Zn15_0 2.599275 1_655
Pt0_0 Zn12_4 2.670614 1_555
Pt0_0 Zn12_0 2.670615 1_655
Pt0_0 Zn10_4 2.688683 1_555
Pt0_0 Zn10_0 2.688684 1_655
Pt0_0 Zn0_4 2.746280 1_555
Pt0_0 Zn0_0 2.746280 1_655
Pt0_0 Zn11_5 2.763334 1_554
Pt0_0 Zn11_1 2.763335 1_654
Pt0_1 Zn15_5 2.599274 1_555
Pt0_1 Zn15_1 2.599275 1_655
Pt0_1 Zn12_5 2.670614 1_555
Pt0_1 Zn12_1 2.670615 1_655
Pt0_1 Zn10_5 2.688683 1_555
Pt0_1 Zn10_1 2.688684 1_655
Pt0_1 Zn0_5 2.746280 1_555
Pt0_1 Zn0_1 2.746280 1_655
Pt0_1 Zn11_4 2.763334 1_555
Pt0_1 Zn11_0 2.763335 1_655
Pt0_2 Zn15_6 2.599274 1_555
Pt0_2 Zn15_2 2.599275 1_655
Pt0_2 Zn12_6 2.670614 1_555
Pt0_2 Zn12_2 2.670615 1_655
Pt0_2 Zn10_6 2.688683 1_555
Pt0_2 Zn10_2 2.688684 1_655
Pt0_2 Zn0_6 2.746280 1_555
Pt0_2 Zn0_2 2.746280 1_655
Pt0_2 Zn11_7 2.763334 1_554
Pt0_2 Zn11_3 2.763335 1_654
Pt0_3 Zn15_7 2.599274 1_555
Pt0_3 Zn15_3 2.599275 1_655
Pt0_3 Zn12_7 2.670614 1_555
Pt0_3 Zn12_3 2.670615 1_655
Pt0_3 Zn10_7 2.688683 1_555
Pt0_3 Zn10_3 2.688684 1_655
Pt0_3 Zn0_7 2.746280 1_555
Pt0_3 Zn0_3 2.746280 1_655
Pt0_3 Zn11_6 2.763334 1_555
Pt0_3 Zn11_2 2.763335 1_655
Pt0_4 Zn15_0 2.599274 1_555
Pt0_4 Zn15_4 2.599275 1_555
Pt0_4 Zn12_0 2.670614 1_555
Pt0_4 Zn12_4 2.670615 1_555
Pt0_4 Zn10_0 2.688683 1_555
Pt0_4 Zn10_4 2.688684 1_555
Pt0_4 Zn0_0 2.746280 1_555
Pt0_4 Zn0_4 2.746280 1_555
Pt0_4 Zn11_1 2.763334 1_554
Pt0_4 Zn11_5 2.763335 1_554
Pt0_5 Zn15_1 2.599274 1_555
Pt0_5 Zn15_5 2.599275 1_555
Pt0_5 Zn12_1 2.670614 1_555
Pt0_5 Zn12_5 2.670615 1_555
Pt0_5 Zn10_1 2.688683 1_555
Pt0_5 Zn10_5 2.688684 1_555
Pt0_5 Zn0_1 2.746280 1_555
Pt0_5 Zn0_5 2.746280 1_555
Pt0_5 Zn11_0 2.763334 1_555
Pt0_5 Zn11_4 2.763335 1_555
Pt0_6 Zn15_2 2.599274 1_555
Pt0_6 Zn15_6 2.599275 1_555
Pt0_6 Zn12_2 2.670614 1_555
Pt0_6 Zn12_6 2.670615 1_555
Pt0_6 Zn10_2 2.688683 1_555
Pt0_6 Zn10_6 2.688684 1_555
Pt0_6 Zn0_2 2.746280 1_555
Pt0_6 Zn0_6 2.746280 1_555
Pt0_6 Zn11_3 2.763334 1_554
Pt0_6 Zn11_7 2.763335 1_554
Pt0_7 Zn15_3 2.599274 1_555
Pt0_7 Zn15_7 2.599275 1_555
Pt0_7 Zn12_3 2.670614 1_555
Pt0_7 Zn12_7 2.670615 1_555
Pt0_7 Zn10_3 2.688683 1_555
Pt0_7 Zn10_7 2.688684 1_555
Pt0_7 Zn0_3 2.746280 1_555
Pt0_7 Zn0_7 2.746280 1_555
Pt0_7 Zn11_2 2.763334 1_555
Pt0_7 Zn11_6 2.763335 1_555
Pt1_0 Zn14_0 2.599010 1_655
Pt1_0 Zn14_4 2.599011 1_555
Pt1_0 Zn13_4 2.669982 1_555
Pt1_0 Zn13_0 2.669983 1_655
Pt1_0 Zn11_0 2.689855 1_655
Pt1_0 Zn11_4 2.689855 1_555
Pt1_0 Zn1_4 2.746215 1_555
Pt1_0 Zn1_0 2.746215 1_655
Pt1_0 Zn10_5 2.764449 1_555
Pt1_0 Zn10_1 2.764449 1_655
Pt1_1 Zn14_1 2.599010 1_655
Pt1_1 Zn14_5 2.599011 1_555
Pt1_1 Zn13_5 2.669982 1_555
Pt1_1 Zn13_1 2.669983 1_655
Pt1_1 Zn11_1 2.689855 1_655
Pt1_1 Zn11_5 2.689855 1_555
Pt1_1 Zn1_5 2.746215 1_555
Pt1_1 Zn1_1 2.746215 1_655
Pt1_1 Zn10_4 2.764449 1_556
Pt1_1 Zn10_0 2.764449 1_656
Pt1_2 Zn14_2 2.599010 1_655
Pt1_2 Zn14_6 2.599011 1_555
Pt1_2 Zn13_6 2.669982 1_555
Pt1_2 Zn13_2 2.669983 1_655
Pt1_2 Zn11_2 2.689855 1_655
Pt1_2 Zn11_6 2.689855 1_555
Pt1_2 Zn1_6 2.746215 1_555
Pt1_2 Zn1_2 2.746215 1_655
Pt1_2 Zn10_7 2.764449 1_555
Pt1_2 Zn10_3 2.764449 1_655
Pt1_3 Zn14_3 2.599010 1_655
Pt1_3 Zn14_7 2.599011 1_555
Pt1_3 Zn13_7 2.669982 1_555
Pt1_3 Zn13_3 2.669983 1_655
Pt1_3 Zn11_3 2.689855 1_655
Pt1_3 Zn11_7 2.689855 1_555
Pt1_3 Zn1_7 2.746215 1_555
Pt1_3 Zn1_3 2.746215 1_655
Pt1_3 Zn10_6 2.764449 1_556
Pt1_3 Zn10_2 2.764449 1_656
Pt1_4 Zn14_4 2.599010 1_555
Pt1_4 Zn14_0 2.599011 1_555
Pt1_4 Zn13_0 2.669982 1_555
Pt1_4 Zn13_4 2.669983 1_555
Pt1_4 Zn11_4 2.689855 1_555
Pt1_4 Zn11_0 2.689855 1_555
Pt1_4 Zn1_0 2.746215 1_555
Pt1_4 Zn1_4 2.746215 1_555
Pt1_4 Zn10_1 2.764449 1_555
Pt1_4 Zn10_5 2.764449 1_555
Pt1_5 Zn14_5 2.599010 1_555
Pt1_5 Zn14_1 2.599011 1_555
Pt1_5 Zn13_1 2.669982 1_555
Pt1_5 Zn13_5 2.669983 1_555
Pt1_5 Zn11_5 2.689855 1_555
Pt1_5 Zn11_1 2.689855 1_555
Pt1_5 Zn1_1 2.746215 1_555
Pt1_5 Zn1_5 2.746215 1_555
Pt1_5 Zn10_0 2.764449 1_556
Pt1_5 Zn10_4 2.764449 1_556
Pt1_6 Zn14_6 2.599010 1_555
Pt1_6 Zn14_2 2.599011 1_555
Pt1_6 Zn13_2 2.669982 1_555
Pt1_6 Zn13_6 2.669983 1_555
Pt1_6 Zn11_6 2.689855 1_555
Pt1_6 Zn11_2 2.689855 1_555
Pt1_6 Zn1_2 2.746215 1_555
Pt1_6 Zn1_6 2.746215 1_555
Pt1_6 Zn10_3 2.764449 1_555
Pt1_6 Zn10_7 2.764449 1_555
Pt1_7 Zn14_7 2.599010 1_555
Pt1_7 Zn14_3 2.599011 1_555
Pt1_7 Zn13_3 2.669982 1_555
Pt1_7 Zn13_7 2.669983 1_555
Pt1_7 Zn11_7 2.689855 1_555
Pt1_7 Zn11_3 2.689855 1_555
Pt1_7 Zn1_3 2.746215 1_555
Pt1_7 Zn1_7 2.746215 1_555
Pt1_7 Zn10_2 2.764449 1_556
Pt1_7 Zn10_6 2.764449 1_556
Pt2_0 Zn17_6 2.598928 1_545
Pt2_0 Zn17_2 2.598928 1_645
Pt2_0 Zn23_0 2.668790 1_655
Pt2_0 Zn23_4 2.668790 1_555
Pt2_0 Zn8_6 2.688700 1_545
Pt2_0 Zn8_2 2.688700 1_645
Pt2_0 Zn2_0 2.745891 1_655
Pt2_0 Zn2_4 2.745891 1_555
Pt2_0 Zn9_0 2.763041 1_655
Pt2_0 Zn9_4 2.763041 1_555
Pt2_1 Zn17_7 2.598928 1_545
Pt2_1 Zn17_3 2.598928 1_645
Pt2_1 Zn23_1 2.668790 1_655
Pt2_1 Zn23_5 2.668790 1_555
Pt2_1 Zn8_7 2.688700 1_545
Pt2_1 Zn8_3 2.688700 1_645
Pt2_1 Zn2_1 2.745891 1_655
Pt2_1 Zn2_5 2.745891 1_555
Pt2_1 Zn9_1 2.763041 1_655
Pt2_1 Zn9_5 2.763041 1_555
Pt2_2 Zn17_4 2.598928 1_555
Pt2_2 Zn17_0 2.598928 1_655
Pt2_2 Zn23_2 2.668790 1_655
Pt2_2 Zn23_6 2.668790 1_555
Pt2_2 Zn8_4 2.688700 1_555
Pt2_2 Zn8_0 2.688700 1_655
Pt2_2 Zn2_2 2.745891 1_655
Pt2_2 Zn2_6 2.745891 1_555
Pt2_2 Zn9_2 2.763041 1_655
Pt2_2 Zn9_6 2.763041 1_555
Pt2_3 Zn17_5 2.598928 1_555
Pt2_3 Zn17_1 2.598928 1_655
Pt2_3 Zn23_3 2.668790 1_655
Pt2_3 Zn23_7 2.668790 1_555
Pt2_3 Zn8_5 2.688700 1_555
Pt2_3 Zn8_1 2.688700 1_655
Pt2_3 Zn2_3 2.745891 1_655
Pt2_3 Zn2_7 2.745891 1_555
Pt2_3 Zn9_3 2.763041 1_655
Pt2_3 Zn9_7 2.763041 1_555
Pt2_4 Zn17_2 2.598928 1_545
Pt2_4 Zn17_6 2.598928 1_545
Pt2_4 Zn23_4 2.668790 1_555
Pt2_4 Zn23_0 2.668790 1_555
Pt2_4 Zn8_2 2.688700 1_545
Pt2_4 Zn8_6 2.688700 1_545
Pt2_4 Zn2_4 2.745891 1_555
Pt2_4 Zn2_0 2.745891 1_555
Pt2_4 Zn9_4 2.763041 1_555
Pt2_4 Zn9_0 2.763041 1_555
Pt2_5 Zn17_3 2.598928 1_545
Pt2_5 Zn17_7 2.598928 1_545
Pt2_5 Zn23_5 2.668790 1_555
Pt2_5 Zn23_1 2.668790 1_555
Pt2_5 Zn8_3 2.688700 1_545
Pt2_5 Zn8_7 2.688700 1_545
Pt2_5 Zn2_5 2.745891 1_555
Pt2_5 Zn2_1 2.745891 1_555
Pt2_5 Zn9_5 2.763041 1_555
Pt2_5 Zn9_1 2.763041 1_555
Pt2_6 Zn17_0 2.598928 1_555
Pt2_6 Zn17_4 2.598928 1_555
Pt2_6 Zn23_6 2.668790 1_555
Pt2_6 Zn23_2 2.668790 1_555
Pt2_6 Zn8_0 2.688700 1_555
Pt2_6 Zn8_4 2.688700 1_555
Pt2_6 Zn2_6 2.745891 1_555
Pt2_6 Zn2_2 2.745891 1_555
Pt2_6 Zn9_6 2.763041 1_555
Pt2_6 Zn9_2 2.763041 1_555
Pt2_7 Zn17_1 2.598928 1_555
Pt2_7 Zn17_5 2.598928 1_555
Pt2_7 Zn23_7 2.668790 1_555
Pt2_7 Zn23_3 2.668790 1_555
Pt2_7 Zn8_1 2.688700 1_555
Pt2_7 Zn8_5 2.688700 1_555
Pt2_7 Zn2_7 2.745891 1_555
Pt2_7 Zn2_3 2.745891 1_555
Pt2_7 Zn9_7 2.763041 1_555
Pt2_7 Zn9_3 2.763041 1_555
Pt3_0 Zn16_2 2.599284 1_555
Pt3_0 Zn16_6 2.599284 1_455
Pt3_0 Zn22_0 2.670457 1_555
Pt3_0 Zn22_4 2.670457 1_455
Pt3_0 Zn9_2 2.689241 1_555
Pt3_0 Zn9_6 2.689241 1_455
Pt3_0 Zn3_4 2.746259 1_455
Pt3_0 Zn3_0 2.746263 1_555
Pt3_0 Zn8_0 2.763425 1_555
Pt3_0 Zn8_4 2.763425 1_455
Pt3_1 Zn16_3 2.599284 1_555
Pt3_1 Zn16_7 2.599284 1_455
Pt3_1 Zn22_1 2.670457 1_555
Pt3_1 Zn22_5 2.670457 1_455
Pt3_1 Zn9_3 2.689241 1_555
Pt3_1 Zn9_7 2.689241 1_455
Pt3_1 Zn3_5 2.746259 1_455
Pt3_1 Zn3_1 2.746263 1_555
Pt3_1 Zn8_1 2.763425 1_555
Pt3_1 Zn8_5 2.763425 1_455
Pt3_2 Zn16_0 2.599284 1_565
Pt3_2 Zn16_4 2.599284 1_465
Pt3_2 Zn22_2 2.670457 1_555
Pt3_2 Zn22_6 2.670457 1_455
Pt3_2 Zn9_0 2.689241 1_565
Pt3_2 Zn9_4 2.689241 1_465
Pt3_2 Zn3_6 2.746259 1_455
Pt3_2 Zn3_2 2.746263 1_555
Pt3_2 Zn8_2 2.763425 1_555
Pt3_2 Zn8_6 2.763425 1_455
Pt3_3 Zn16_1 2.599284 1_565
Pt3_3 Zn16_5 2.599284 1_465
Pt3_3 Zn22_3 2.670457 1_555
Pt3_3 Zn22_7 2.670457 1_455
Pt3_3 Zn9_1 2.689241 1_565
Pt3_3 Zn9_5 2.689241 1_465
Pt3_3 Zn3_7 2.746259 1_455
Pt3_3 Zn3_3 2.746263 1_555
Pt3_3 Zn8_3 2.763425 1_555
Pt3_3 Zn8_7 2.763425 1_455
Pt3_4 Zn16_6 2.599284 1_555
Pt3_4 Zn16_2 2.599284 1_555
Pt3_4 Zn22_4 2.670457 1_555
Pt3_4 Zn22_0 2.670457 1_555
Pt3_4 Zn9_6 2.689241 1_555
Pt3_4 Zn9_2 2.689241 1_555
Pt3_4 Zn3_0 2.746259 1_555
Pt3_4 Zn3_4 2.746263 1_555
Pt3_4 Zn8_4 2.763425 1_555
Pt3_4 Zn8_0 2.763425 1_555
Pt3_5 Zn16_7 2.599284 1_555
Pt3_5 Zn16_3 2.599284 1_555
Pt3_5 Zn22_5 2.670457 1_555
Pt3_5 Zn22_1 2.670457 1_555
Pt3_5 Zn9_7 2.689241 1_555
Pt3_5 Zn9_3 2.689241 1_555
Pt3_5 Zn3_1 2.746259 1_555
Pt3_5 Zn3_5 2.746263 1_555
Pt3_5 Zn8_5 2.763425 1_555
Pt3_5 Zn8_1 2.763425 1_555
Pt3_6 Zn16_4 2.599284 1_565
Pt3_6 Zn16_0 2.599284 1_565
Pt3_6 Zn22_6 2.670457 1_555
Pt3_6 Zn22_2 2.670457 1_555
Pt3_6 Zn9_4 2.689241 1_565
Pt3_6 Zn9_0 2.689241 1_565
Pt3_6 Zn3_2 2.746259 1_555
Pt3_6 Zn3_6 2.746263 1_555
Pt3_6 Zn8_6 2.763425 1_555
Pt3_6 Zn8_2 2.763425 1_555
Pt3_7 Zn16_5 2.599284 1_565
Pt3_7 Zn16_1 2.599284 1_565
Pt3_7 Zn22_7 2.670457 1_555
Pt3_7 Zn22_3 2.670457 1_555
Pt3_7 Zn9_5 2.689241 1_565
Pt3_7 Zn9_1 2.689241 1_565
Pt3_7 Zn3_3 2.746259 1_555
Pt3_7 Zn3_7 2.746263 1_555
Pt3_7 Zn8_7 2.763425 1_555
Pt3_7 Zn8_3 2.763425 1_555
Pt4_0 Zn19_4 2.635905 1_555
Pt4_0 Zn19_0 2.635906 1_655
Pt4_0 Zn4_0 2.639377 1_655
Pt4_0 Zn4_4 2.639377 1_555
Pt4_0 Zn6_4 2.641589 1_555
Pt4_0 Zn6_0 2.641589 1_655
Pt4_0 Zn12_0 2.661988 1_655
Pt4_0 Zn12_4 2.661988 1_555
Pt4_1 Zn19_5 2.635905 1_555
Pt4_1 Zn19_1 2.635906 1_655
Pt4_1 Zn4_1 2.639377 1_655
Pt4_1 Zn4_5 2.639377 1_555
Pt4_1 Zn6_5 2.641589 1_555
Pt4_1 Zn6_1 2.641589 1_655
Pt4_1 Zn12_1 2.661988 1_655
Pt4_1 Zn12_5 2.661988 1_555
Pt4_2 Zn19_6 2.635905 1_555
Pt4_2 Zn19_2 2.635906 1_655
Pt4_2 Zn4_2 2.639377 1_655
Pt4_2 Zn4_6 2.639377 1_555
Pt4_2 Zn6_6 2.641589 1_555
Pt4_2 Zn6_2 2.641589 1_655
Pt4_2 Zn12_2 2.661988 1_655
Pt4_2 Zn12_6 2.661988 1_555
Pt4_3 Zn19_7 2.635905 1_555
Pt4_3 Zn19_3 2.635906 1_655
Pt4_3 Zn4_3 2.639377 1_655
Pt4_3 Zn4_7 2.639377 1_555
Pt4_3 Zn6_7 2.641589 1_555
Pt4_3 Zn6_3 2.641589 1_655
Pt4_3 Zn12_3 2.661988 1_655
Pt4_3 Zn12_7 2.661988 1_555
Pt4_4 Zn19_0 2.635905 1_555
Pt4_4 Zn19_4 2.635906 1_555
Pt4_4 Zn4_4 2.639377 1_555
Pt4_4 Zn4_0 2.639377 1_555
Pt4_4 Zn6_0 2.641589 1_555
Pt4_4 Zn6_4 2.641589 1_555
Pt4_4 Zn12_4 2.661988 1_555
Pt4_4 Zn12_0 2.661988 1_555
Pt4_5 Zn19_1 2.635905 1_555
Pt4_5 Zn19_5 2.635906 1_555
Pt4_5 Zn4_5 2.639377 1_555
Pt4_5 Zn4_1 2.639377 1_555
Pt4_5 Zn6_1 2.641589 1_555
Pt4_5 Zn6_5 2.641589 1_555
Pt4_5 Zn12_5 2.661988 1_555
Pt4_5 Zn12_1 2.661988 1_555
Pt4_6 Zn19_2 2.635905 1_555
Pt4_6 Zn19_6 2.635906 1_555
Pt4_6 Zn4_6 2.639377 1_555
Pt4_6 Zn4_2 2.639377 1_555
Pt4_6 Zn6_2 2.641589 1_555
Pt4_6 Zn6_6 2.641589 1_555
Pt4_6 Zn12_6 2.661988 1_555
Pt4_6 Zn12_2 2.661988 1_555
Pt4_7 Zn19_3 2.635905 1_555
Pt4_7 Zn19_7 2.635906 1_555
Pt4_7 Zn4_7 2.639377 1_555
Pt4_7 Zn4_3 2.639377 1_555
Pt4_7 Zn6_3 2.641589 1_555
Pt4_7 Zn6_7 2.641589 1_555
Pt4_7 Zn12_7 2.661988 1_555
Pt4_7 Zn12_3 2.661988 1_555
Pt5_0 Zn18_0 2.635424 1_555
Pt5_0 Zn18_4 2.635425 1_455
Pt5_0 Zn5_0 2.639272 1_555
Pt5_0 Zn5_4 2.639272 1_455
Pt5_0 Zn7_0 2.643248 1_555
Pt5_0 Zn7_4 2.643249 1_455
Pt5_0 Zn13_0 2.660430 1_555
Pt5_0 Zn13_4 2.660431 1_455
Pt5_1 Zn18_1 2.635424 1_555
Pt5_1 Zn18_5 2.635425 1_455
Pt5_1 Zn5_1 2.639272 1_555
Pt5_1 Zn5_5 2.639272 1_455
Pt5_1 Zn7_1 2.643248 1_555
Pt5_1 Zn7_5 2.643249 1_455
Pt5_1 Zn13_1 2.660430 1_555
Pt5_1 Zn13_5 2.660431 1_455
Pt5_2 Zn18_2 2.635424 1_555
Pt5_2 Zn18_6 2.635425 1_455
Pt5_2 Zn5_2 2.639272 1_555
Pt5_2 Zn5_6 2.639272 1_455
Pt5_2 Zn7_2 2.643248 1_555
Pt5_2 Zn7_6 2.643249 1_455
Pt5_2 Zn13_2 2.660430 1_555
Pt5_2 Zn13_6 2.660431 1_455
Pt5_3 Zn18_3 2.635424 1_555
Pt5_3 Zn18_7 2.635425 1_455
Pt5_3 Zn5_3 2.639272 1_555
Pt5_3 Zn5_7 2.639272 1_455
Pt5_3 Zn7_3 2.643248 1_555
Pt5_3 Zn7_7 2.643249 1_455
Pt5_3 Zn13_3 2.660430 1_555
Pt5_3 Zn13_7 2.660431 1_455
Pt5_4 Zn18_4 2.635424 1_555
Pt5_4 Zn18_0 2.635425 1_555
Pt5_4 Zn5_4 2.639272 1_555
Pt5_4 Zn5_0 2.639272 1_555
Pt5_4 Zn7_4 2.643248 1_555
Pt5_4 Zn7_0 2.643249 1_555
Pt5_4 Zn13_4 2.660430 1_555
Pt5_4 Zn13_0 2.660431 1_555
Pt5_5 Zn18_5 2.635424 1_555
Pt5_5 Zn18_1 2.635425 1_555
Pt5_5 Zn5_5 2.639272 1_555
Pt5_5 Zn5_1 2.639272 1_555
Pt5_5 Zn7_5 2.643248 1_555
Pt5_5 Zn7_1 2.643249 1_555
Pt5_5 Zn13_5 2.660430 1_555
Pt5_5 Zn13_1 2.660431 1_555
Pt5_6 Zn18_6 2.635424 1_555
Pt5_6 Zn18_2 2.635425 1_555
Pt5_6 Zn5_6 2.639272 1_555
Pt5_6 Zn5_2 2.639272 1_555
Pt5_6 Zn7_6 2.643248 1_555
Pt5_6 Zn7_2 2.643249 1_555
Pt5_6 Zn13_6 2.660430 1_555
Pt5_6 Zn13_2 2.660431 1_555
Pt5_7 Zn18_7 2.635424 1_555
Pt5_7 Zn18_3 2.635425 1_555
Pt5_7 Zn5_7 2.639272 1_555
Pt5_7 Zn5_3 2.639272 1_555
Pt5_7 Zn7_7 2.643248 1_555
Pt5_7 Zn7_3 2.643249 1_555
Pt5_7 Zn13_7 2.660430 1_555
Pt5_7 Zn13_3 2.660431 1_555
Pt6_0 Zn21_6 2.635384 1_545
Pt6_0 Zn21_2 2.635384 1_645
Pt6_0 Zn6_4 2.639087 1_555
Pt6_0 Zn6_0 2.639088 1_655
Pt6_0 Zn4_6 2.643087 1_545
Pt6_0 Zn4_2 2.643088 1_645
Pt6_0 Zn23_4 2.659818 1_555
Pt6_0 Zn23_0 2.659818 1_655
Pt6_1 Zn21_7 2.635384 1_545
Pt6_1 Zn21_3 2.635384 1_645
Pt6_1 Zn6_5 2.639087 1_555
Pt6_1 Zn6_1 2.639088 1_655
Pt6_1 Zn4_7 2.643087 1_545
Pt6_1 Zn4_3 2.643088 1_645
Pt6_1 Zn23_5 2.659818 1_555
Pt6_1 Zn23_1 2.659818 1_655
Pt6_2 Zn21_4 2.635384 1_555
Pt6_2 Zn21_0 2.635384 1_655
Pt6_2 Zn6_6 2.639087 1_555
Pt6_2 Zn6_2 2.639088 1_655
Pt6_2 Zn4_4 2.643087 1_555
Pt6_2 Zn4_0 2.643088 1_655
Pt6_2 Zn23_6 2.659818 1_555
Pt6_2 Zn23_2 2.659818 1_655
Pt6_3 Zn21_5 2.635384 1_555
Pt6_3 Zn21_1 2.635384 1_655
Pt6_3 Zn6_7 2.639087 1_555
Pt6_3 Zn6_3 2.639088 1_655
Pt6_3 Zn4_5 2.643087 1_555
Pt6_3 Zn4_1 2.643088 1_655
Pt6_3 Zn23_7 2.659818 1_555
Pt6_3 Zn23_3 2.659818 1_655
Pt6_4 Zn21_2 2.635384 1_545
Pt6_4 Zn21_6 2.635384 1_545
Pt6_4 Zn6_0 2.639087 1_555
Pt6_4 Zn6_4 2.639088 1_555
Pt6_4 Zn4_2 2.643087 1_545
Pt6_4 Zn4_6 2.643088 1_545
Pt6_4 Zn23_0 2.659818 1_555
Pt6_4 Zn23_4 2.659818 1_555
Pt6_5 Zn21_3 2.635384 1_545
Pt6_5 Zn21_7 2.635384 1_545
Pt6_5 Zn6_1 2.639087 1_555
Pt6_5 Zn6_5 2.639088 1_555
Pt6_5 Zn4_3 2.643087 1_545
Pt6_5 Zn4_7 2.643088 1_545
Pt6_5 Zn23_1 2.659818 1_555
Pt6_5 Zn23_5 2.659818 1_555
Pt6_6 Zn21_0 2.635384 1_555
Pt6_6 Zn21_4 2.635384 1_555
Pt6_6 Zn6_2 2.639087 1_555
Pt6_6 Zn6_6 2.639088 1_555
Pt6_6 Zn4_0 2.643087 1_555
Pt6_6 Zn4_4 2.643088 1_555
Pt6_6 Zn23_2 2.659818 1_555
Pt6_6 Zn23_6 2.659818 1_555
Pt6_7 Zn21_1 2.635384 1_555
Pt6_7 Zn21_5 2.635384 1_555
Pt6_7 Zn6_3 2.639087 1_555
Pt6_7 Zn6_7 2.639088 1_555
Pt6_7 Zn4_1 2.643087 1_555
Pt6_7 Zn4_5 2.643088 1_555
Pt6_7 Zn23_3 2.659818 1_555
Pt6_7 Zn23_7 2.659818 1_555
Pt7_0 Zn20_6 2.635582 1_555
Pt7_0 Zn20_2 2.635583 1_655
Pt7_0 Zn7_4 2.639451 1_555
Pt7_0 Zn7_0 2.639452 1_655
Pt7_0 Zn5_6 2.642529 1_555
Pt7_0 Zn5_2 2.642529 1_655
Pt7_0 Zn22_4 2.661630 1_555
Pt7_0 Zn22_0 2.661630 1_655
Pt7_1 Zn20_7 2.635582 1_555
Pt7_1 Zn20_3 2.635583 1_655
Pt7_1 Zn7_5 2.639451 1_555
Pt7_1 Zn7_1 2.639452 1_655
Pt7_1 Zn5_7 2.642529 1_555
Pt7_1 Zn5_3 2.642529 1_655
Pt7_1 Zn22_5 2.661630 1_555
Pt7_1 Zn22_1 2.661630 1_655
Pt7_2 Zn20_4 2.635582 1_565
Pt7_2 Zn20_0 2.635583 1_665
Pt7_2 Zn7_6 2.639451 1_555
Pt7_2 Zn7_2 2.639452 1_655
Pt7_2 Zn5_4 2.642529 1_565
Pt7_2 Zn5_0 2.642529 1_665
Pt7_2 Zn22_6 2.661630 1_555
Pt7_2 Zn22_2 2.661630 1_655
Pt7_3 Zn20_5 2.635582 1_565
Pt7_3 Zn20_1 2.635583 1_665
Pt7_3 Zn7_7 2.639451 1_555
Pt7_3 Zn7_3 2.639452 1_655
Pt7_3 Zn5_5 2.642529 1_565
Pt7_3 Zn5_1 2.642529 1_665
Pt7_3 Zn22_7 2.661630 1_555
Pt7_3 Zn22_3 2.661630 1_655
Pt7_4 Zn20_2 2.635582 1_555
Pt7_4 Zn20_6 2.635583 1_555
Pt7_4 Zn7_0 2.639451 1_555
Pt7_4 Zn7_4 2.639452 1_555
Pt7_4 Zn5_2 2.642529 1_555
Pt7_4 Zn5_6 2.642529 1_555
Pt7_4 Zn22_0 2.661630 1_555
Pt7_4 Zn22_4 2.661630 1_555
Pt7_5 Zn20_3 2.635582 1_555
Pt7_5 Zn20_7 2.635583 1_555
Pt7_5 Zn7_1 2.639451 1_555
Pt7_5 Zn7_5 2.639452 1_555
Pt7_5 Zn5_3 2.642529 1_555
Pt7_5 Zn5_7 2.642529 1_555
Pt7_5 Zn22_1 2.661630 1_555
Pt7_5 Zn22_5 2.661630 1_555
Pt7_6 Zn20_0 2.635582 1_565
Pt7_6 Zn20_4 2.635583 1_565
Pt7_6 Zn7_2 2.639451 1_555
Pt7_6 Zn7_6 2.639452 1_555
Pt7_6 Zn5_0 2.642529 1_565
Pt7_6 Zn5_4 2.642529 1_565
Pt7_6 Zn22_2 2.661630 1_555
Pt7_6 Zn22_6 2.661630 1_555
Pt7_7 Zn20_1 2.635582 1_565
Pt7_7 Zn20_5 2.635583 1_565
Pt7_7 Zn7_3 2.639451 1_555
Pt7_7 Zn7_7 2.639452 1_555
Pt7_7 Zn5_1 2.642529 1_565
Pt7_7 Zn5_5 2.642529 1_565
Pt7_7 Zn22_3 2.661630 1_555
Pt7_7 Zn22_7 2.661630 1_555
Pt8_0 Zn17_0 2.598595 1_555
Pt8_0 Zn17_4 2.598596 1_455
Pt8_0 Zn2_0 2.650010 1_555
Pt8_0 Zn2_4 2.650011 1_455
Pt8_0 Zn6_0 2.657822 1_555
Pt8_0 Zn6_4 2.657823 1_455
Pt8_0 Zn21_0 2.666834 1_555
Pt8_0 Zn21_4 2.666835 1_455
Pt8_0 Zn23_0 2.896255 1_555
Pt8_0 Zn23_4 2.896256 1_455
Pt8_1 Zn17_1 2.598595 1_555
Pt8_1 Zn17_5 2.598596 1_455
Pt8_1 Zn2_1 2.650010 1_555
Pt8_1 Zn2_5 2.650011 1_455
Pt8_1 Zn6_1 2.657822 1_555
Pt8_1 Zn6_5 2.657823 1_455
Pt8_1 Zn21_1 2.666834 1_555
Pt8_1 Zn21_5 2.666835 1_455
Pt8_1 Zn23_1 2.896255 1_555
Pt8_1 Zn23_5 2.896256 1_455
Pt8_2 Zn17_2 2.598595 1_555
Pt8_2 Zn17_6 2.598596 1_455
Pt8_2 Zn2_2 2.650010 1_555
Pt8_2 Zn2_6 2.650011 1_455
Pt8_2 Zn6_2 2.657822 1_555
Pt8_2 Zn6_6 2.657823 1_455
Pt8_2 Zn21_2 2.666834 1_555
Pt8_2 Zn21_6 2.666835 1_455
Pt8_2 Zn23_2 2.896255 1_555
Pt8_2 Zn23_6 2.896256 1_455
Pt8_3 Zn17_3 2.598595 1_555
Pt8_3 Zn17_7 2.598596 1_455
Pt8_3 Zn2_3 2.650010 1_555
Pt8_3 Zn2_7 2.650011 1_455
Pt8_3 Zn6_3 2.657822 1_555
Pt8_3 Zn6_7 2.657823 1_455
Pt8_3 Zn21_3 2.666834 1_555
Pt8_3 Zn21_7 2.666835 1_455
Pt8_3 Zn23_3 2.896255 1_555
Pt8_3 Zn23_7 2.896256 1_455
Pt8_4 Zn17_4 2.598595 1_555
Pt8_4 Zn17_0 2.598596 1_555
Pt8_4 Zn2_4 2.650010 1_555
Pt8_4 Zn2_0 2.650011 1_555
Pt8_4 Zn6_4 2.657822 1_555
Pt8_4 Zn6_0 2.657823 1_555
Pt8_4 Zn21_4 2.666834 1_555
Pt8_4 Zn21_0 2.666835 1_555
Pt8_4 Zn23_4 2.896255 1_555
Pt8_4 Zn23_0 2.896256 1_555
Pt8_5 Zn17_5 2.598595 1_555
Pt8_5 Zn17_1 2.598596 1_555
Pt8_5 Zn2_5 2.650010 1_555
Pt8_5 Zn2_1 2.650011 1_555
Pt8_5 Zn6_5 2.657822 1_555
Pt8_5 Zn6_1 2.657823 1_555
Pt8_5 Zn21_5 2.666834 1_555
Pt8_5 Zn21_1 2.666835 1_555
Pt8_5 Zn23_5 2.896255 1_555
Pt8_5 Zn23_1 2.896256 1_555
Pt8_6 Zn17_6 2.598595 1_555
Pt8_6 Zn17_2 2.598596 1_555
Pt8_6 Zn2_6 2.650010 1_555
Pt8_6 Zn2_2 2.650011 1_555
Pt8_6 Zn6_6 2.657822 1_555
Pt8_6 Zn6_2 2.657823 1_555
Pt8_6 Zn21_6 2.666834 1_555
Pt8_6 Zn21_2 2.666835 1_555
Pt8_6 Zn23_6 2.896255 1_555
Pt8_6 Zn23_2 2.896256 1_555
Pt8_7 Zn17_7 2.598595 1_555
Pt8_7 Zn17_3 2.598596 1_555
Pt8_7 Zn2_7 2.650010 1_555
Pt8_7 Zn2_3 2.650011 1_555
Pt8_7 Zn6_7 2.657822 1_555
Pt8_7 Zn6_3 2.657823 1_555
Pt8_7 Zn21_7 2.666834 1_555
Pt8_7 Zn21_3 2.666835 1_555
Pt8_7 Zn23_7 2.896255 1_555
Pt8_7 Zn23_3 2.896256 1_555
Pt9_0 Zn16_4 2.598843 1_455
Pt9_0 Zn16_0 2.598843 1_555
Pt9_0 Zn3_4 2.651099 1_455
Pt9_0 Zn3_0 2.651103 1_555
Pt9_0 Zn7_0 2.658796 1_555
Pt9_0 Zn7_4 2.658797 1_455
Pt9_0 Zn20_4 2.667343 1_455
Pt9_0 Zn20_0 2.667343 1_555
Pt9_0 Zn22_0 2.896108 1_555
Pt9_0 Zn22_4 2.896108 1_455
Pt9_1 Zn16_5 2.598843 1_455
Pt9_1 Zn16_1 2.598843 1_555
Pt9_1 Zn3_5 2.651099 1_455
Pt9_1 Zn3_1 2.651103 1_555
Pt9_1 Zn7_1 2.658796 1_555
Pt9_1 Zn7_5 2.658797 1_455
Pt9_1 Zn20_5 2.667343 1_455
Pt9_1 Zn20_1 2.667343 1_555
Pt9_1 Zn22_1 2.896108 1_555
Pt9_1 Zn22_5 2.896108 1_455
Pt9_2 Zn16_6 2.598843 1_455
Pt9_2 Zn16_2 2.598843 1_555
Pt9_2 Zn3_6 2.651099 1_455
Pt9_2 Zn3_2 2.651103 1_555
Pt9_2 Zn7_2 2.658796 1_555
Pt9_2 Zn7_6 2.658797 1_455
Pt9_2 Zn20_6 2.667343 1_455
Pt9_2 Zn20_2 2.667343 1_555
Pt9_2 Zn22_2 2.896108 1_555
Pt9_2 Zn22_6 2.896108 1_455
Pt9_3 Zn16_7 2.598843 1_455
Pt9_3 Zn16_3 2.598843 1_555
Pt9_3 Zn3_7 2.651099 1_455
Pt9_3 Zn3_3 2.651103 1_555
Pt9_3 Zn7_3 2.658796 1_555
Pt9_3 Zn7_7 2.658797 1_455
Pt9_3 Zn20_7 2.667343 1_455
Pt9_3 Zn20_3 2.667343 1_555
Pt9_3 Zn22_3 2.896108 1_555
Pt9_3 Zn22_7 2.896108 1_455
Pt9_4 Zn16_0 2.598843 1_555
Pt9_4 Zn16_4 2.598843 1_555
Pt9_4 Zn3_0 2.651099 1_555
Pt9_4 Zn3_4 2.651103 1_555
Pt9_4 Zn7_4 2.658796 1_555
Pt9_4 Zn7_0 2.658797 1_555
Pt9_4 Zn20_0 2.667343 1_555
Pt9_4 Zn20_4 2.667343 1_555
Pt9_4 Zn22_4 2.896108 1_555
Pt9_4 Zn22_0 2.896108 1_555
Pt9_5 Zn16_1 2.598843 1_555
Pt9_5 Zn16_5 2.598843 1_555
Pt9_5 Zn3_1 2.651099 1_555
Pt9_5 Zn3_5 2.651103 1_555
Pt9_5 Zn7_5 2.658796 1_555
Pt9_5 Zn7_1 2.658797 1_555
Pt9_5 Zn20_1 2.667343 1_555
Pt9_5 Zn20_5 2.667343 1_555
Pt9_5 Zn22_5 2.896108 1_555
Pt9_5 Zn22_1 2.896108 1_555
Pt9_6 Zn16_2 2.598843 1_555
Pt9_6 Zn16_6 2.598843 1_555
Pt9_6 Zn3_2 2.651099 1_555
Pt9_6 Zn3_6 2.651103 1_555
Pt9_6 Zn7_6 2.658796 1_555
Pt9_6 Zn7_2 2.658797 1_555
Pt9_6 Zn20_2 2.667343 1_555
Pt9_6 Zn20_6 2.667343 1_555
Pt9_6 Zn22_6 2.896108 1_555
Pt9_6 Zn22_2 2.896108 1_555
Pt9_7 Zn16_3 2.598843 1_555
Pt9_7 Zn16_7 2.598843 1_555
Pt9_7 Zn3_3 2.651099 1_555
Pt9_7 Zn3_7 2.651103 1_555
Pt9_7 Zn7_7 2.658796 1_555
Pt9_7 Zn7_3 2.658797 1_555
Pt9_7 Zn20_3 2.667343 1_555
Pt9_7 Zn20_7 2.667343 1_555
Pt9_7 Zn22_7 2.896108 1_555
Pt9_7 Zn22_3 2.896108 1_555
Pt10_0 Zn15_6 2.598970 1_555
Pt10_0 Zn15_2 2.598971 1_655
Pt10_0 Zn0_4 2.651085 1_555
Pt10_0 Zn0_0 2.651086 1_655
Pt10_0 Zn4_4 2.658743 1_555
Pt10_0 Zn4_0 2.658745 1_655
Pt10_0 Zn19_6 2.667036 1_555
Pt10_0 Zn19_2 2.667037 1_655
Pt10_0 Zn12_4 2.896028 1_555
Pt10_0 Zn12_0 2.896029 1_655
Pt10_1 Zn15_7 2.598970 1_555
Pt10_1 Zn15_3 2.598971 1_655
Pt10_1 Zn0_5 2.651085 1_555
Pt10_1 Zn0_1 2.651086 1_655
Pt10_1 Zn4_5 2.658743 1_555
Pt10_1 Zn4_1 2.658745 1_655
Pt10_1 Zn19_7 2.667036 1_555
Pt10_1 Zn19_3 2.667037 1_655
Pt10_1 Zn12_5 2.896028 1_555
Pt10_1 Zn12_1 2.896029 1_655
Pt10_2 Zn15_4 2.598970 1_565
Pt10_2 Zn15_0 2.598971 1_665
Pt10_2 Zn0_6 2.651085 1_555
Pt10_2 Zn0_2 2.651086 1_655
Pt10_2 Zn4_6 2.658743 1_555
Pt10_2 Zn4_2 2.658745 1_655
Pt10_2 Zn19_4 2.667036 1_565
Pt10_2 Zn19_0 2.667037 1_665
Pt10_2 Zn12_6 2.896028 1_555
Pt10_2 Zn12_2 2.896029 1_655
Pt10_3 Zn15_5 2.598970 1_565
Pt10_3 Zn15_1 2.598971 1_665
Pt10_3 Zn0_7 2.651085 1_555
Pt10_3 Zn0_3 2.651086 1_655
Pt10_3 Zn4_7 2.658743 1_555
Pt10_3 Zn4_3 2.658745 1_655
Pt10_3 Zn19_5 2.667036 1_565
Pt10_3 Zn19_1 2.667037 1_665
Pt10_3 Zn12_7 2.896028 1_555
Pt10_3 Zn12_3 2.896029 1_655
Pt10_4 Zn15_2 2.598970 1_555
Pt10_4 Zn15_6 2.598971 1_555
Pt10_4 Zn0_0 2.651085 1_555
Pt10_4 Zn0_4 2.651086 1_555
Pt10_4 Zn4_0 2.658743 1_555
Pt10_4 Zn4_4 2.658745 1_555
Pt10_4 Zn19_2 2.667036 1_555
Pt10_4 Zn19_6 2.667037 1_555
Pt10_4 Zn12_0 2.896028 1_555
Pt10_4 Zn12_4 2.896029 1_555
Pt10_5 Zn15_3 2.598970 1_555
Pt10_5 Zn15_7 2.598971 1_555
Pt10_5 Zn0_1 2.651085 1_555
Pt10_5 Zn0_5 2.651086 1_555
Pt10_5 Zn4_1 2.658743 1_555
Pt10_5 Zn4_5 2.658745 1_555
Pt10_5 Zn19_3 2.667036 1_555
Pt10_5 Zn19_7 2.667037 1_555
Pt10_5 Zn12_1 2.896028 1_555
Pt10_5 Zn12_5 2.896029 1_555
Pt10_6 Zn15_0 2.598970 1_565
Pt10_6 Zn15_4 2.598971 1_565
Pt10_6 Zn0_2 2.651085 1_555
Pt10_6 Zn0_6 2.651086 1_555
Pt10_6 Zn4_2 2.658743 1_555
Pt10_6 Zn4_6 2.658745 1_555
Pt10_6 Zn19_0 2.667036 1_565
Pt10_6 Zn19_4 2.667037 1_565
Pt10_6 Zn12_2 2.896028 1_555
Pt10_6 Zn12_6 2.896029 1_555
Pt10_7 Zn15_1 2.598970 1_565
Pt10_7 Zn15_5 2.598971 1_565
Pt10_7 Zn0_3 2.651085 1_555
Pt10_7 Zn0_7 2.651086 1_555
Pt10_7 Zn4_3 2.658743 1_555
Pt10_7 Zn4_7 2.658745 1_555
Pt10_7 Zn19_1 2.667036 1_565
Pt10_7 Zn19_5 2.667037 1_565
Pt10_7 Zn12_3 2.896028 1_555
Pt10_7 Zn12_7 2.896029 1_555
Pt11_0 Zn14_2 2.598766 1_545
Pt11_0 Zn14_6 2.598767 1_445
Pt11_0 Zn1_0 2.650994 1_555
Pt11_0 Zn1_4 2.650994 1_455
Pt11_0 Zn5_0 2.659375 1_555
Pt11_0 Zn5_4 2.659376 1_455
Pt11_0 Zn18_2 2.667617 1_545
Pt11_0 Zn18_6 2.667618 1_445
Pt11_0 Zn13_0 2.895782 1_555
Pt11_0 Zn13_4 2.895783 1_455
Pt11_1 Zn14_3 2.598766 1_545
Pt11_1 Zn14_7 2.598767 1_445
Pt11_1 Zn1_1 2.650994 1_555
Pt11_1 Zn1_5 2.650994 1_455
Pt11_1 Zn5_1 2.659375 1_555
Pt11_1 Zn5_5 2.659376 1_455
Pt11_1 Zn18_3 2.667617 1_545
Pt11_1 Zn18_7 2.667618 1_445
Pt11_1 Zn13_1 2.895782 1_555
Pt11_1 Zn13_5 2.895783 1_455
Pt11_2 Zn14_0 2.598766 1_555
Pt11_2 Zn14_4 2.598767 1_455
Pt11_2 Zn1_2 2.650994 1_555
Pt11_2 Zn1_6 2.650994 1_455
Pt11_2 Zn5_2 2.659375 1_555
Pt11_2 Zn5_6 2.659376 1_455
Pt11_2 Zn18_0 2.667617 1_555
Pt11_2 Zn18_4 2.667618 1_455
Pt11_2 Zn13_2 2.895782 1_555
Pt11_2 Zn13_6 2.895783 1_455
Pt11_3 Zn14_1 2.598766 1_555
Pt11_3 Zn14_5 2.598767 1_455
Pt11_3 Zn1_3 2.650994 1_555
Pt11_3 Zn1_7 2.650994 1_455
Pt11_3 Zn5_3 2.659375 1_555
Pt11_3 Zn5_7 2.659376 1_455
Pt11_3 Zn18_1 2.667617 1_555
Pt11_3 Zn18_5 2.667618 1_455
Pt11_3 Zn13_3 2.895782 1_555
Pt11_3 Zn13_7 2.895783 1_455
Pt11_4 Zn14_6 2.598766 1_545
Pt11_4 Zn14_2 2.598767 1_545
Pt11_4 Zn1_4 2.650994 1_555
Pt11_4 Zn1_0 2.650994 1_555
Pt11_4 Zn5_4 2.659375 1_555
Pt11_4 Zn5_0 2.659376 1_555
Pt11_4 Zn18_6 2.667617 1_545
Pt11_4 Zn18_2 2.667618 1_545
Pt11_4 Zn13_4 2.895782 1_555
Pt11_4 Zn13_0 2.895783 1_555
Pt11_5 Zn14_7 2.598766 1_545
Pt11_5 Zn14_3 2.598767 1_545
Pt11_5 Zn1_5 2.650994 1_555
Pt11_5 Zn1_1 2.650994 1_555
Pt11_5 Zn5_5 2.659375 1_555
Pt11_5 Zn5_1 2.659376 1_555
Pt11_5 Zn18_7 2.667617 1_545
Pt11_5 Zn18_3 2.667618 1_545
Pt11_5 Zn13_5 2.895782 1_555
Pt11_5 Zn13_1 2.895783 1_555
Pt11_6 Zn14_4 2.598766 1_555
Pt11_6 Zn14_0 2.598767 1_555
Pt11_6 Zn1_6 2.650994 1_555
Pt11_6 Zn1_2 2.650994 1_555
Pt11_6 Zn5_6 2.659375 1_555
Pt11_6 Zn5_2 2.659376 1_555
Pt11_6 Zn18_4 2.667617 1_555
Pt11_6 Zn18_0 2.667618 1_555
Pt11_6 Zn13_6 2.895782 1_555
Pt11_6 Zn13_2 2.895783 1_555
Pt11_7 Zn14_5 2.598766 1_555
Pt11_7 Zn14_1 2.598767 1_555
Pt11_7 Zn1_7 2.650994 1_555
Pt11_7 Zn1_3 2.650994 1_555
Pt11_7 Zn5_7 2.659375 1_555
Pt11_7 Zn5_3 2.659376 1_555
Pt11_7 Zn18_5 2.667617 1_555
Pt11_7 Zn18_1 2.667618 1_555
Pt11_7 Zn13_7 2.895782 1_555
Pt11_7 Zn13_3 2.895783 1_555
Pt12_0 Zn8_0 2.622039 1_555
Pt12_0 Zn8_4 2.622040 1_455
Pt12_0 Zn9_0 2.622159 1_555
Pt12_0 Zn9_4 2.622159 1_455
Pt12_0 Zn2_0 2.624298 1_555
Pt12_0 Zn2_4 2.624298 1_455
Pt12_0 Zn3_4 2.625307 1_455
Pt12_0 Zn3_0 2.625310 1_555
Pt12_1 Zn8_1 2.622039 1_555
Pt12_1 Zn8_5 2.622040 1_455
Pt12_1 Zn9_1 2.622159 1_555
Pt12_1 Zn9_5 2.622159 1_455
Pt12_1 Zn2_1 2.624298 1_555
Pt12_1 Zn2_5 2.624298 1_455
Pt12_1 Zn3_5 2.625307 1_455
Pt12_1 Zn3_1 2.625310 1_555
Pt12_2 Zn8_2 2.622039 1_555
Pt12_2 Zn8_6 2.622040 1_455
Pt12_2 Zn9_2 2.622159 1_555
Pt12_2 Zn9_6 2.622159 1_455
Pt12_2 Zn2_2 2.624298 1_555
Pt12_2 Zn2_6 2.624298 1_455
Pt12_2 Zn3_6 2.625307 1_455
Pt12_2 Zn3_2 2.625310 1_555
Pt12_3 Zn8_3 2.622039 1_555
Pt12_3 Zn8_7 2.622040 1_455
Pt12_3 Zn9_3 2.622159 1_555
Pt12_3 Zn9_7 2.622159 1_455
Pt12_3 Zn2_3 2.624298 1_555
Pt12_3 Zn2_7 2.624298 1_455
Pt12_3 Zn3_7 2.625307 1_455
Pt12_3 Zn3_3 2.625310 1_555
Pt12_4 Zn8_4 2.622039 1_555
Pt12_4 Zn8_0 2.622040 1_555
Pt12_4 Zn9_4 2.622159 1_555
Pt12_4 Zn9_0 2.622159 1_555
Pt12_4 Zn2_4 2.624298 1_555
Pt12_4 Zn2_0 2.624298 1_555
Pt12_4 Zn3_0 2.625307 1_555
Pt12_4 Zn3_4 2.625310 1_555
Pt12_5 Zn8_5 2.622039 1_555
Pt12_5 Zn8_1 2.622040 1_555
Pt12_5 Zn9_5 2.622159 1_555
Pt12_5 Zn9_1 2.622159 1_555
Pt12_5 Zn2_5 2.624298 1_555
Pt12_5 Zn2_1 2.624298 1_555
Pt12_5 Zn3_1 2.625307 1_555
Pt12_5 Zn3_5 2.625310 1_555
Pt12_6 Zn8_6 2.622039 1_555
Pt12_6 Zn8_2 2.622040 1_555
Pt12_6 Zn9_6 2.622159 1_555
Pt12_6 Zn9_2 2.622159 1_555
Pt12_6 Zn2_6 2.624298 1_555
Pt12_6 Zn2_2 2.624298 1_555
Pt12_6 Zn3_2 2.625307 1_555
Pt12_6 Zn3_6 2.625310 1_555
Pt12_7 Zn8_7 2.622039 1_555
Pt12_7 Zn8_3 2.622040 1_555
Pt12_7 Zn9_7 2.622159 1_555
Pt12_7 Zn9_3 2.622159 1_555
Pt12_7 Zn2_7 2.624298 1_555
Pt12_7 Zn2_3 2.624298 1_555
Pt12_7 Zn3_3 2.625307 1_555
Pt12_7 Zn3_7 2.625310 1_555
Pt13_0 Zn11_7 2.621937 1_545
Pt13_0 Zn11_3 2.621937 1_645
Pt13_0 Zn10_4 2.622237 1_556
Pt13_0 Zn10_0 2.622238 1_656
Pt13_0 Zn1_5 2.624546 1_555
Pt13_0 Zn1_1 2.624547 1_655
Pt13_0 Zn0_6 2.625903 1_546
Pt13_0 Zn0_2 2.625903 1_646
Pt13_1 Zn11_6 2.621937 1_545
Pt13_1 Zn11_2 2.621937 1_645
Pt13_1 Zn10_5 2.622237 1_555
Pt13_1 Zn10_1 2.622238 1_655
Pt13_1 Zn1_4 2.624546 1_555
Pt13_1 Zn1_0 2.624547 1_655
Pt13_1 Zn0_7 2.625903 1_545
Pt13_1 Zn0_3 2.625903 1_645
Pt13_2 Zn11_5 2.621937 1_555
Pt13_2 Zn11_1 2.621937 1_655
Pt13_2 Zn10_6 2.622237 1_556
Pt13_2 Zn10_2 2.622238 1_656
Pt13_2 Zn1_7 2.624546 1_555
Pt13_2 Zn1_3 2.624547 1_655
Pt13_2 Zn0_4 2.625903 1_556
Pt13_2 Zn0_0 2.625903 1_656
Pt13_3 Zn11_4 2.621937 1_555
Pt13_3 Zn11_0 2.621937 1_655
Pt13_3 Zn10_7 2.622237 1_555
Pt13_3 Zn10_3 2.622238 1_655
Pt13_3 Zn1_6 2.624546 1_555
Pt13_3 Zn1_2 2.624547 1_655
Pt13_3 Zn0_5 2.625903 1_555
Pt13_3 Zn0_1 2.625903 1_655
Pt13_4 Zn11_3 2.621937 1_545
Pt13_4 Zn11_7 2.621937 1_545
Pt13_4 Zn10_0 2.622237 1_556
Pt13_4 Zn10_4 2.622238 1_556
Pt13_4 Zn1_1 2.624546 1_555
Pt13_4 Zn1_5 2.624547 1_555
Pt13_4 Zn0_2 2.625903 1_546
Pt13_4 Zn0_6 2.625903 1_546
Pt13_5 Zn11_2 2.621937 1_545
Pt13_5 Zn11_6 2.621937 1_545
Pt13_5 Zn10_1 2.622237 1_555
Pt13_5 Zn10_5 2.622238 1_555
Pt13_5 Zn1_0 2.624546 1_555
Pt13_5 Zn1_4 2.624547 1_555
Pt13_5 Zn0_3 2.625903 1_545
Pt13_5 Zn0_7 2.625903 1_545
Pt13_6 Zn11_1 2.621937 1_555
Pt13_6 Zn11_5 2.621937 1_555
Pt13_6 Zn10_2 2.622237 1_556
Pt13_6 Zn10_6 2.622238 1_556
Pt13_6 Zn1_3 2.624546 1_555
Pt13_6 Zn1_7 2.624547 1_555
Pt13_6 Zn0_0 2.625903 1_556
Pt13_6 Zn0_4 2.625903 1_556
Pt13_7 Zn11_0 2.621937 1_555
Pt13_7 Zn11_4 2.621937 1_555
Pt13_7 Zn10_3 2.622237 1_555
Pt13_7 Zn10_7 2.622238 1_555
Pt13_7 Zn1_2 2.624546 1_555
Pt13_7 Zn1_6 2.624547 1_555
Pt13_7 Zn0_1 2.625903 1_555
Pt13_7 Zn0_5 2.625903 1_555
