# generated using pymatgen
data_AlAu2
_symmetry_space_group_name_H-M   'P 1'
_cell_length_a   6.43012976
_cell_length_b   17.78963650
_cell_length_c   34.43344268
_cell_angle_alpha   90.00000000
_cell_angle_beta   90.00000000
_cell_angle_gamma   90.00000000
_symmetry_Int_Tables_number   1
_chemical_formula_structural   AlAu2
_chemical_formula_sum   'Al80 Au160'
_cell_volume   3938.83018226
_cell_formula_units_Z   80
loop_
 _symmetry_equiv_pos_site_id
 _symmetry_equiv_pos_as_xyz
  1  'x, y, z'
loop_
 _atom_site_type_symbol
 _atom_site_label
 _atom_site_symmetry_multiplicity
 _atom_site_fract_x
 _atom_site_fract_y
 _atom_site_fract_z
 _atom_site_occupancy
  Al  Al0_0  1  0.00000000  0.00000000  0.00000000  1
  Al  Al0_1  1  0.00000000  0.00000000  0.50000000  1
  Al  Al0_2  1  0.00000000  0.50000000  0.00000000  1
  Al  Al0_3  1  0.00000000  0.50000000  0.50000000  1
  Al  Al0_4  1  0.50000000  0.00000000  0.00000000  1
  Al  Al0_5  1  0.50000000  0.00000000  0.50000000  1
  Al  Al0_6  1  0.50000000  0.50000000  0.00000000  1
  Al  Al0_7  1  0.50000000  0.50000000  0.50000000  1
  Al  Al1_0  1  0.25000000  0.25000000  0.25000000  1
  Al  Al1_1  1  0.25000000  0.25000000  0.75000000  1
  Al  Al1_2  1  0.25000000  0.75000000  0.25000000  1
  Al  Al1_3  1  0.25000000  0.75000000  0.75000000  1
  Al  Al1_4  1  0.75000000  0.25000000  0.25000000  1
  Al  Al1_5  1  0.75000000  0.25000000  0.75000000  1
  Al  Al1_6  1  0.75000000  0.75000000  0.25000000  1
  Al  Al1_7  1  0.75000000  0.75000000  0.75000000  1
  Al  Al2_0  1  0.00000000  0.48950578  0.10103061  1
  Al  Al2_1  1  0.00000000  0.48950578  0.60103060  1
  Al  Al2_2  1  0.00000000  0.98950578  0.10103061  1
  Al  Al2_3  1  0.00000000  0.98950578  0.60103060  1
  Al  Al2_4  1  0.50000000  0.48950578  0.10103061  1
  Al  Al2_5  1  0.50000000  0.48950578  0.60103060  1
  Al  Al2_6  1  0.50000000  0.98950578  0.10103061  1
  Al  Al2_7  1  0.50000000  0.98950578  0.60103060  1
  Al  Al3_0  1  0.00000000  0.01049422  0.39896940  1
  Al  Al3_1  1  0.00000000  0.01049422  0.89896940  1
  Al  Al3_2  1  0.00000000  0.51049422  0.39896940  1
  Al  Al3_3  1  0.00000000  0.51049422  0.89896940  1
  Al  Al3_4  1  0.50000000  0.01049422  0.39896940  1
  Al  Al3_5  1  0.50000000  0.01049422  0.89896940  1
  Al  Al3_6  1  0.50000000  0.51049422  0.39896940  1
  Al  Al3_7  1  0.50000000  0.51049422  0.89896940  1
  Al  Al4_0  1  0.25000000  0.23950578  0.14896940  1
  Al  Al4_1  1  0.25000000  0.23950578  0.64896940  1
  Al  Al4_2  1  0.25000000  0.73950578  0.14896940  1
  Al  Al4_3  1  0.25000000  0.73950578  0.64896940  1
  Al  Al4_4  1  0.75000000  0.23950578  0.14896940  1
  Al  Al4_5  1  0.75000000  0.23950578  0.64896940  1
  Al  Al4_6  1  0.75000000  0.73950578  0.14896940  1
  Al  Al4_7  1  0.75000000  0.73950578  0.64896940  1
  Al  Al5_0  1  0.25000000  0.26049423  0.35103060  1
  Al  Al5_1  1  0.25000000  0.26049423  0.85103061  1
  Al  Al5_2  1  0.25000000  0.76049422  0.35103060  1
  Al  Al5_3  1  0.25000000  0.76049422  0.85103061  1
  Al  Al5_4  1  0.75000000  0.26049423  0.35103060  1
  Al  Al5_5  1  0.75000000  0.26049423  0.85103061  1
  Al  Al5_6  1  0.75000000  0.76049422  0.35103060  1
  Al  Al5_7  1  0.75000000  0.76049422  0.85103061  1
  Al  Al6_0  1  0.00000000  0.01440766  0.20077263  1
  Al  Al6_1  1  0.00000000  0.01440766  0.70077263  1
  Al  Al6_2  1  0.00000000  0.51440766  0.20077263  1
  Al  Al6_3  1  0.00000000  0.51440766  0.70077263  1
  Al  Al6_4  1  0.50000000  0.01440766  0.20077263  1
  Al  Al6_5  1  0.50000000  0.01440766  0.70077263  1
  Al  Al6_6  1  0.50000000  0.51440766  0.20077263  1
  Al  Al6_7  1  0.50000000  0.51440766  0.70077263  1
  Al  Al7_0  1  0.00000000  0.48559234  0.29922737  1
  Al  Al7_1  1  0.00000000  0.48559234  0.79922737  1
  Al  Al7_2  1  0.00000000  0.98559234  0.29922737  1
  Al  Al7_3  1  0.00000000  0.98559234  0.79922737  1
  Al  Al7_4  1  0.50000000  0.48559234  0.29922737  1
  Al  Al7_5  1  0.50000000  0.48559234  0.79922737  1
  Al  Al7_6  1  0.50000000  0.98559234  0.29922737  1
  Al  Al7_7  1  0.50000000  0.98559234  0.79922737  1
  Al  Al8_0  1  0.25000000  0.26440766  0.04922737  1
  Al  Al8_1  1  0.25000000  0.26440766  0.54922737  1
  Al  Al8_2  1  0.25000000  0.76440766  0.04922737  1
  Al  Al8_3  1  0.25000000  0.76440766  0.54922737  1
  Al  Al8_4  1  0.75000000  0.26440766  0.04922737  1
  Al  Al8_5  1  0.75000000  0.26440766  0.54922737  1
  Al  Al8_6  1  0.75000000  0.76440766  0.04922737  1
  Al  Al8_7  1  0.75000000  0.76440766  0.54922737  1
  Al  Al9_0  1  0.25000000  0.23559234  0.45077263  1
  Al  Al9_1  1  0.25000000  0.23559234  0.95077263  1
  Al  Al9_2  1  0.25000000  0.73559234  0.45077263  1
  Al  Al9_3  1  0.25000000  0.73559234  0.95077263  1
  Al  Al9_4  1  0.75000000  0.23559234  0.45077263  1
  Al  Al9_5  1  0.75000000  0.23559234  0.95077263  1
  Al  Al9_6  1  0.75000000  0.73559234  0.45077263  1
  Al  Al9_7  1  0.75000000  0.73559234  0.95077263  1
  Au  Au0_0  1  0.00000000  0.17224571  0.00715638  1
  Au  Au0_1  1  0.00000000  0.17224571  0.50715637  1
  Au  Au0_2  1  0.00000000  0.67224571  0.00715638  1
  Au  Au0_3  1  0.00000000  0.67224571  0.50715637  1
  Au  Au0_4  1  0.50000000  0.17224571  0.00715638  1
  Au  Au0_5  1  0.50000000  0.17224571  0.50715637  1
  Au  Au0_6  1  0.50000000  0.67224571  0.00715638  1
  Au  Au0_7  1  0.50000000  0.67224571  0.50715637  1
  Au  Au1_0  1  0.00000000  0.32775429  0.49284363  1
  Au  Au1_1  1  0.00000000  0.32775429  0.99284363  1
  Au  Au1_2  1  0.00000000  0.82775429  0.49284363  1
  Au  Au1_3  1  0.00000000  0.82775429  0.99284363  1
  Au  Au1_4  1  0.50000000  0.32775429  0.49284363  1
  Au  Au1_5  1  0.50000000  0.32775429  0.99284363  1
  Au  Au1_6  1  0.50000000  0.82775429  0.49284363  1
  Au  Au1_7  1  0.50000000  0.82775429  0.99284363  1
  Au  Au2_0  1  0.25000000  0.42224572  0.24284363  1
  Au  Au2_1  1  0.25000000  0.42224572  0.74284363  1
  Au  Au2_2  1  0.25000000  0.92224571  0.24284363  1
  Au  Au2_3  1  0.25000000  0.92224571  0.74284363  1
  Au  Au2_4  1  0.75000000  0.42224572  0.24284363  1
  Au  Au2_5  1  0.75000000  0.42224572  0.74284363  1
  Au  Au2_6  1  0.75000000  0.92224571  0.24284363  1
  Au  Au2_7  1  0.75000000  0.92224571  0.74284363  1
  Au  Au3_0  1  0.25000000  0.07775429  0.25715637  1
  Au  Au3_1  1  0.25000000  0.07775429  0.75715637  1
  Au  Au3_2  1  0.25000000  0.57775429  0.25715637  1
  Au  Au3_3  1  0.25000000  0.57775429  0.75715637  1
  Au  Au3_4  1  0.75000000  0.07775429  0.25715637  1
  Au  Au3_5  1  0.75000000  0.07775429  0.75715637  1
  Au  Au3_6  1  0.75000000  0.57775429  0.25715637  1
  Au  Au3_7  1  0.75000000  0.57775429  0.75715637  1
  Au  Au4_0  1  0.00000000  0.18078210  0.09318590  1
  Au  Au4_1  1  0.00000000  0.18078210  0.59318589  1
  Au  Au4_2  1  0.00000000  0.68078211  0.09318590  1
  Au  Au4_3  1  0.00000000  0.68078211  0.59318589  1
  Au  Au4_4  1  0.50000000  0.18078210  0.09318590  1
  Au  Au4_5  1  0.50000000  0.18078210  0.59318589  1
  Au  Au4_6  1  0.50000000  0.68078211  0.09318590  1
  Au  Au4_7  1  0.50000000  0.68078211  0.59318589  1
  Au  Au5_0  1  0.00000000  0.31921790  0.40681410  1
  Au  Au5_1  1  0.00000000  0.31921790  0.90681411  1
  Au  Au5_2  1  0.00000000  0.81921790  0.40681410  1
  Au  Au5_3  1  0.00000000  0.81921790  0.90681411  1
  Au  Au5_4  1  0.50000000  0.31921790  0.40681410  1
  Au  Au5_5  1  0.50000000  0.31921790  0.90681411  1
  Au  Au5_6  1  0.50000000  0.81921790  0.40681410  1
  Au  Au5_7  1  0.50000000  0.81921790  0.90681411  1
  Au  Au6_0  1  0.25000000  0.43078211  0.15681411  1
  Au  Au6_1  1  0.25000000  0.43078211  0.65681411  1
  Au  Au6_2  1  0.25000000  0.93078211  0.15681411  1
  Au  Au6_3  1  0.25000000  0.93078211  0.65681411  1
  Au  Au6_4  1  0.75000000  0.43078211  0.15681411  1
  Au  Au6_5  1  0.75000000  0.43078211  0.65681411  1
  Au  Au6_6  1  0.75000000  0.93078211  0.15681411  1
  Au  Au6_7  1  0.75000000  0.93078211  0.65681411  1
  Au  Au7_0  1  0.25000000  0.06921790  0.34318590  1
  Au  Au7_1  1  0.25000000  0.06921790  0.84318590  1
  Au  Au7_2  1  0.25000000  0.56921789  0.34318590  1
  Au  Au7_3  1  0.25000000  0.56921789  0.84318590  1
  Au  Au7_4  1  0.75000000  0.06921790  0.34318590  1
  Au  Au7_5  1  0.75000000  0.06921790  0.84318590  1
  Au  Au7_6  1  0.75000000  0.56921789  0.34318590  1
  Au  Au7_7  1  0.75000000  0.56921789  0.84318590  1
  Au  Au8_0  1  0.00000000  0.16311638  0.20230755  1
  Au  Au8_1  1  0.00000000  0.16311638  0.70230755  1
  Au  Au8_2  1  0.00000000  0.66311638  0.20230755  1
  Au  Au8_3  1  0.00000000  0.66311638  0.70230755  1
  Au  Au8_4  1  0.50000000  0.16311638  0.20230755  1
  Au  Au8_5  1  0.50000000  0.16311638  0.70230755  1
  Au  Au8_6  1  0.50000000  0.66311638  0.20230755  1
  Au  Au8_7  1  0.50000000  0.66311638  0.70230755  1
  Au  Au9_0  1  0.00000000  0.33688362  0.29769245  1
  Au  Au9_1  1  0.00000000  0.33688362  0.79769245  1
  Au  Au9_2  1  0.00000000  0.83688362  0.29769245  1
  Au  Au9_3  1  0.00000000  0.83688362  0.79769245  1
  Au  Au9_4  1  0.50000000  0.33688362  0.29769245  1
  Au  Au9_5  1  0.50000000  0.33688362  0.79769245  1
  Au  Au9_6  1  0.50000000  0.83688362  0.29769245  1
  Au  Au9_7  1  0.50000000  0.83688362  0.79769245  1
  Au  Au10_0  1  0.25000000  0.41311638  0.04769245  1
  Au  Au10_1  1  0.25000000  0.41311638  0.54769245  1
  Au  Au10_2  1  0.25000000  0.91311638  0.04769245  1
  Au  Au10_3  1  0.25000000  0.91311638  0.54769245  1
  Au  Au10_4  1  0.75000000  0.41311638  0.04769245  1
  Au  Au10_5  1  0.75000000  0.41311638  0.54769245  1
  Au  Au10_6  1  0.75000000  0.91311638  0.04769245  1
  Au  Au10_7  1  0.75000000  0.91311638  0.54769245  1
  Au  Au11_0  1  0.25000000  0.08688362  0.45230755  1
  Au  Au11_1  1  0.25000000  0.08688362  0.95230755  1
  Au  Au11_2  1  0.25000000  0.58688362  0.45230755  1
  Au  Au11_3  1  0.25000000  0.58688362  0.95230755  1
  Au  Au11_4  1  0.75000000  0.08688362  0.45230755  1
  Au  Au11_5  1  0.75000000  0.08688362  0.95230755  1
  Au  Au11_6  1  0.75000000  0.58688362  0.45230755  1
  Au  Au11_7  1  0.75000000  0.58688362  0.95230755  1
  Au  Au12_0  1  0.00000000  0.18257709  0.30340604  1
  Au  Au12_1  1  0.00000000  0.18257709  0.80340603  1
  Au  Au12_2  1  0.00000000  0.68257709  0.30340604  1
  Au  Au12_3  1  0.00000000  0.68257709  0.80340603  1
  Au  Au12_4  1  0.50000000  0.18257709  0.30340604  1
  Au  Au12_5  1  0.50000000  0.18257709  0.80340603  1
  Au  Au12_6  1  0.50000000  0.68257709  0.30340604  1
  Au  Au12_7  1  0.50000000  0.68257709  0.80340603  1
  Au  Au13_0  1  0.00000000  0.31742291  0.19659397  1
  Au  Au13_1  1  0.00000000  0.31742291  0.69659397  1
  Au  Au13_2  1  0.00000000  0.81742291  0.19659397  1
  Au  Au13_3  1  0.00000000  0.81742291  0.69659397  1
  Au  Au13_4  1  0.50000000  0.31742291  0.19659397  1
  Au  Au13_5  1  0.50000000  0.31742291  0.69659397  1
  Au  Au13_6  1  0.50000000  0.81742291  0.19659397  1
  Au  Au13_7  1  0.50000000  0.81742291  0.69659397  1
  Au  Au14_0  1  0.25000000  0.43257709  0.44659396  1
  Au  Au14_1  1  0.25000000  0.43257709  0.94659397  1
  Au  Au14_2  1  0.25000000  0.93257709  0.44659396  1
  Au  Au14_3  1  0.25000000  0.93257709  0.94659397  1
  Au  Au14_4  1  0.75000000  0.43257709  0.44659396  1
  Au  Au14_5  1  0.75000000  0.43257709  0.94659397  1
  Au  Au14_6  1  0.75000000  0.93257709  0.44659396  1
  Au  Au14_7  1  0.75000000  0.93257709  0.94659397  1
  Au  Au15_0  1  0.25000000  0.06742291  0.05340604  1
  Au  Au15_1  1  0.25000000  0.06742291  0.55340603  1
  Au  Au15_2  1  0.25000000  0.56742291  0.05340604  1
  Au  Au15_3  1  0.25000000  0.56742291  0.55340603  1
  Au  Au15_4  1  0.75000000  0.06742291  0.05340604  1
  Au  Au15_5  1  0.75000000  0.06742291  0.55340603  1
  Au  Au15_6  1  0.75000000  0.56742291  0.05340604  1
  Au  Au15_7  1  0.75000000  0.56742291  0.55340603  1
  Au  Au16_0  1  0.00000000  0.16514576  0.39364853  1
  Au  Au16_1  1  0.00000000  0.16514576  0.89364853  1
  Au  Au16_2  1  0.00000000  0.66514576  0.39364853  1
  Au  Au16_3  1  0.00000000  0.66514576  0.89364853  1
  Au  Au16_4  1  0.50000000  0.16514576  0.39364853  1
  Au  Au16_5  1  0.50000000  0.16514576  0.89364853  1
  Au  Au16_6  1  0.50000000  0.66514576  0.39364853  1
  Au  Au16_7  1  0.50000000  0.66514576  0.89364853  1
  Au  Au17_0  1  0.00000000  0.33485424  0.10635147  1
  Au  Au17_1  1  0.00000000  0.33485424  0.60635147  1
  Au  Au17_2  1  0.00000000  0.83485424  0.10635147  1
  Au  Au17_3  1  0.00000000  0.83485424  0.60635147  1
  Au  Au17_4  1  0.50000000  0.33485424  0.10635147  1
  Au  Au17_5  1  0.50000000  0.33485424  0.60635147  1
  Au  Au17_6  1  0.50000000  0.83485424  0.10635147  1
  Au  Au17_7  1  0.50000000  0.83485424  0.60635147  1
  Au  Au18_0  1  0.25000000  0.41514576  0.35635147  1
  Au  Au18_1  1  0.25000000  0.41514576  0.85635147  1
  Au  Au18_2  1  0.25000000  0.91514576  0.35635147  1
  Au  Au18_3  1  0.25000000  0.91514576  0.85635147  1
  Au  Au18_4  1  0.75000000  0.41514576  0.35635147  1
  Au  Au18_5  1  0.75000000  0.41514576  0.85635147  1
  Au  Au18_6  1  0.75000000  0.91514576  0.35635147  1
  Au  Au18_7  1  0.75000000  0.91514576  0.85635147  1
  Au  Au19_0  1  0.25000000  0.08485424  0.14364853  1
  Au  Au19_1  1  0.25000000  0.08485424  0.64364853  1
  Au  Au19_2  1  0.25000000  0.58485424  0.14364853  1
  Au  Au19_3  1  0.25000000  0.58485424  0.64364853  1
  Au  Au19_4  1  0.75000000  0.08485424  0.14364853  1
  Au  Au19_5  1  0.75000000  0.08485424  0.64364853  1
  Au  Au19_6  1  0.75000000  0.58485424  0.14364853  1
  Au  Au19_7  1  0.75000000  0.58485424  0.64364853  1
loop_
_geom_bond_atom_site_label_1
_geom_bond_atom_site_label_2
_geom_bond_distance
_geom_bond_site_symmetry_2
Al0_0 Au14_7 2.721129 1_444
Al0_0 Au14_3 2.721129 1_544
Al0_0 Au15_4 2.721129 1_455
Al0_0 Au15_0 2.721129 1_555
Al0_0 Au10_2 2.769476 1_545
Al0_0 Au10_6 2.769476 1_445
Al0_0 Au11_1 2.769476 1_554
Al0_0 Au11_5 2.769476 1_454
Al0_0 Au1_3 3.074081 1_544
Al0_0 Au0_0 3.074081 1_555
Al0_1 Au15_5 2.721129 1_455
Al0_1 Au15_1 2.721129 1_555
Al0_1 Au14_2 2.721129 1_545
Al0_1 Au14_6 2.721129 1_445
Al0_1 Au10_3 2.769476 1_545
Al0_1 Au10_7 2.769476 1_445
Al0_1 Au11_0 2.769476 1_555
Al0_1 Au11_4 2.769476 1_455
Al0_1 Au1_2 3.074081 1_545
Al0_1 Au0_1 3.074081 1_555
Al0_2 Au14_1 2.721129 1_554
Al0_2 Au14_5 2.721129 1_454
Al0_2 Au15_2 2.721129 1_555
Al0_2 Au15_6 2.721129 1_455
Al0_2 Au10_4 2.769476 1_455
Al0_2 Au10_0 2.769476 1_555
Al0_2 Au11_3 2.769476 1_554
Al0_2 Au11_7 2.769476 1_454
Al0_2 Au1_1 3.074081 1_554
Al0_2 Au0_2 3.074081 1_555
Al0_3 Au15_7 2.721129 1_455
Al0_3 Au15_3 2.721129 1_555
Al0_3 Au14_0 2.721129 1_555
Al0_3 Au14_4 2.721129 1_455
Al0_3 Au10_5 2.769476 1_455
Al0_3 Au10_1 2.769476 1_555
Al0_3 Au11_2 2.769476 1_555
Al0_3 Au11_6 2.769476 1_455
Al0_3 Au0_3 3.074081 1_555
Al0_3 Au1_0 3.074081 1_555
Al0_4 Au14_7 2.721129 1_544
Al0_4 Au14_3 2.721129 1_544
Al0_4 Au15_4 2.721129 1_555
Al0_4 Au15_0 2.721129 1_555
Al0_4 Au10_2 2.769476 1_545
Al0_4 Au10_6 2.769476 1_545
Al0_4 Au11_1 2.769476 1_554
Al0_4 Au11_5 2.769476 1_554
Al0_4 Au1_7 3.074081 1_544
Al0_4 Au0_4 3.074081 1_555
Al0_5 Au15_1 2.721129 1_555
Al0_5 Au15_5 2.721129 1_555
Al0_5 Au14_2 2.721129 1_545
Al0_5 Au14_6 2.721129 1_545
Al0_5 Au10_7 2.769476 1_545
Al0_5 Au11_4 2.769476 1_555
Al0_5 Au10_3 2.769476 1_545
Al0_5 Au11_0 2.769476 1_555
Al0_5 Au1_6 3.074081 1_545
Al0_5 Au0_5 3.074081 1_555
Al0_6 Au14_5 2.721129 1_554
Al0_6 Au14_1 2.721129 1_554
Al0_6 Au15_2 2.721129 1_555
Al0_6 Au15_6 2.721129 1_555
Al0_6 Au10_4 2.769476 1_555
Al0_6 Au10_0 2.769476 1_555
Al0_6 Au11_3 2.769476 1_554
Al0_6 Au11_7 2.769476 1_554
Al0_6 Au1_5 3.074081 1_554
Al0_6 Au0_6 3.074081 1_555
Al0_7 Au15_3 2.721129 1_555
Al0_7 Au15_7 2.721129 1_555
Al0_7 Au14_4 2.721129 1_555
Al0_7 Au14_0 2.721129 1_555
Al0_7 Au10_1 2.769476 1_555
Al0_7 Au10_5 2.769476 1_555
Al0_7 Au11_2 2.769476 1_555
Al0_7 Au11_6 2.769476 1_555
Al0_7 Au1_4 3.074081 1_555
Al0_7 Au0_7 3.074081 1_555
Al1_0 Au13_4 2.721129 1_555
Al1_0 Au13_0 2.721129 1_555
Al1_0 Au12_0 2.721129 1_555
Al1_0 Au12_4 2.721129 1_555
Al1_0 Au8_0 2.769476 1_555
Al1_0 Au8_4 2.769476 1_555
Al1_0 Au9_0 2.769476 1_555
Al1_0 Au9_4 2.769476 1_555
Al1_0 Au3_0 3.074081 1_555
Al1_0 Au2_0 3.074081 1_555
Al1_1 Au13_5 2.721129 1_555
Al1_1 Au12_5 2.721129 1_555
Al1_1 Au12_1 2.721129 1_555
Al1_1 Au13_1 2.721129 1_555
Al1_1 Au9_5 2.769476 1_555
Al1_1 Au9_1 2.769476 1_555
Al1_1 Au8_5 2.769476 1_555
Al1_1 Au8_1 2.769476 1_555
Al1_1 Au3_1 3.074081 1_555
Al1_1 Au2_1 3.074081 1_555
Al1_2 Au13_6 2.721129 1_555
Al1_2 Au13_2 2.721129 1_555
Al1_2 Au12_2 2.721129 1_555
Al1_2 Au12_6 2.721129 1_555
Al1_2 Au8_2 2.769476 1_555
Al1_2 Au8_6 2.769476 1_555
Al1_2 Au9_2 2.769476 1_555
Al1_2 Au9_6 2.769476 1_555
Al1_2 Au2_2 3.074081 1_555
Al1_2 Au3_2 3.074081 1_555
Al1_3 Au13_7 2.721129 1_555
Al1_3 Au13_3 2.721129 1_555
Al1_3 Au12_7 2.721129 1_555
Al1_3 Au12_3 2.721129 1_555
Al1_3 Au9_3 2.769476 1_555
Al1_3 Au8_3 2.769476 1_555
Al1_3 Au9_7 2.769476 1_555
Al1_3 Au8_7 2.769476 1_555
Al1_3 Au3_3 3.074081 1_555
Al1_3 Au2_3 3.074081 1_555
Al1_4 Au13_0 2.721129 1_655
Al1_4 Au13_4 2.721129 1_555
Al1_4 Au12_0 2.721129 1_655
Al1_4 Au12_4 2.721129 1_555
Al1_4 Au8_0 2.769476 1_655
Al1_4 Au8_4 2.769476 1_555
Al1_4 Au9_4 2.769476 1_555
Al1_4 Au9_0 2.769476 1_655
Al1_4 Au3_4 3.074081 1_555
Al1_4 Au2_4 3.074081 1_555
Al1_5 Au13_5 2.721129 1_555
Al1_5 Au12_5 2.721129 1_555
Al1_5 Au13_1 2.721129 1_655
Al1_5 Au12_1 2.721129 1_655
Al1_5 Au9_1 2.769476 1_655
Al1_5 Au9_5 2.769476 1_555
Al1_5 Au8_5 2.769476 1_555
Al1_5 Au8_1 2.769476 1_655
Al1_5 Au3_5 3.074081 1_555
Al1_5 Au2_5 3.074081 1_555
Al1_6 Au13_2 2.721129 1_655
Al1_6 Au13_6 2.721129 1_555
Al1_6 Au12_2 2.721129 1_655
Al1_6 Au12_6 2.721129 1_555
Al1_6 Au8_2 2.769476 1_655
Al1_6 Au8_6 2.769476 1_555
Al1_6 Au9_2 2.769476 1_655
Al1_6 Au9_6 2.769476 1_555
Al1_6 Au3_6 3.074081 1_555
Al1_6 Au2_6 3.074081 1_555
Al1_7 Au13_7 2.721129 1_555
Al1_7 Au13_3 2.721129 1_655
Al1_7 Au12_7 2.721129 1_555
Al1_7 Au12_3 2.721129 1_655
Al1_7 Au9_3 2.769476 1_655
Al1_7 Au9_7 2.769476 1_555
Al1_7 Au8_3 2.769476 1_655
Al1_7 Au8_7 2.769476 1_555
Al1_7 Au3_7 3.074081 1_555
Al1_7 Au2_7 3.074081 1_555
Al2_0 Au15_2 2.682290 1_555
Al2_0 Au15_6 2.682290 1_455
Al2_0 Au6_0 2.713861 1_555
Al2_0 Au6_4 2.713861 1_455
Al2_0 Au17_0 2.757288 1_555
Al2_0 Au19_6 2.759494 1_455
Al2_0 Au19_2 2.759494 1_555
Al2_0 Au10_0 2.793571 1_555
Al2_0 Au10_4 2.793571 1_455
Al2_1 Au15_3 2.682290 1_555
Al2_1 Au15_7 2.682290 1_455
Al2_1 Au6_5 2.713861 1_455
Al2_1 Au6_1 2.713861 1_555
Al2_1 Au17_1 2.757288 1_555
Al2_1 Au19_7 2.759494 1_455
Al2_1 Au19_3 2.759494 1_555
Al2_1 Au10_1 2.793571 1_555
Al2_1 Au10_5 2.793571 1_455
Al2_2 Au15_0 2.682290 1_565
Al2_2 Au15_4 2.682290 1_465
Al2_2 Au6_6 2.713861 1_455
Al2_2 Au6_2 2.713861 1_555
Al2_2 Au17_2 2.757288 1_555
Al2_2 Au19_0 2.759494 1_565
Al2_2 Au19_4 2.759494 1_465
Al2_2 Au10_2 2.793571 1_555
Al2_2 Au10_6 2.793571 1_455
Al2_3 Au15_1 2.682290 1_565
Al2_3 Au15_5 2.682290 1_465
Al2_3 Au6_7 2.713861 1_455
Al2_3 Au6_3 2.713861 1_555
Al2_3 Au17_3 2.757288 1_555
Al2_3 Au19_1 2.759494 1_565
Al2_3 Au19_5 2.759494 1_465
Al2_3 Au10_7 2.793571 1_455
Al2_3 Au10_3 2.793571 1_555
Al2_4 Au15_2 2.682290 1_555
Al2_4 Au15_6 2.682290 1_555
Al2_4 Au6_0 2.713861 1_555
Al2_4 Au6_4 2.713861 1_555
Al2_4 Au17_4 2.757288 1_555
Al2_4 Au19_2 2.759494 1_555
Al2_4 Au19_6 2.759494 1_555
Al2_4 Au10_4 2.793571 1_555
Al2_4 Au10_0 2.793571 1_555
Al2_5 Au15_3 2.682290 1_555
Al2_5 Au15_7 2.682290 1_555
Al2_5 Au6_5 2.713861 1_555
Al2_5 Au6_1 2.713861 1_555
Al2_5 Au17_5 2.757288 1_555
Al2_5 Au19_3 2.759494 1_555
Al2_5 Au19_7 2.759494 1_555
Al2_5 Au10_1 2.793571 1_555
Al2_5 Au10_5 2.793571 1_555
Al2_6 Au15_0 2.682290 1_565
Al2_6 Au15_4 2.682290 1_565
Al2_6 Au6_6 2.713861 1_555
Al2_6 Au6_2 2.713861 1_555
Al2_6 Au17_6 2.757288 1_555
Al2_6 Au19_4 2.759494 1_565
Al2_6 Au19_0 2.759494 1_565
Al2_6 Au10_6 2.793571 1_555
Al2_6 Au10_2 2.793571 1_555
Al2_7 Au15_1 2.682290 1_565
Al2_7 Au15_5 2.682290 1_565
Al2_7 Au6_7 2.713861 1_555
Al2_7 Au6_3 2.713861 1_555
Al2_7 Au17_7 2.757288 1_555
Al2_7 Au19_1 2.759494 1_565
Al2_7 Au19_5 2.759494 1_565
Al2_7 Au10_7 2.793571 1_555
Al2_7 Au10_3 2.793571 1_555
Al3_0 Au14_2 2.682290 1_545
Al3_0 Au14_6 2.682290 1_445
Al3_0 Au7_4 2.713861 1_455
Al3_0 Au7_0 2.713861 1_555
Al3_0 Au16_0 2.757288 1_555
Al3_0 Au18_2 2.759494 1_545
Al3_0 Au18_6 2.759494 1_445
Al3_0 Au11_0 2.793571 1_555
Al3_0 Au11_4 2.793571 1_455
Al3_1 Au14_3 2.682290 1_545
Al3_1 Au14_7 2.682290 1_445
Al3_1 Au7_5 2.713861 1_455
Al3_1 Au7_1 2.713861 1_555
Al3_1 Au16_1 2.757288 1_555
Al3_1 Au18_3 2.759494 1_545
Al3_1 Au18_7 2.759494 1_445
Al3_1 Au11_1 2.793571 1_555
Al3_1 Au11_5 2.793571 1_455
Al3_2 Au14_0 2.682290 1_555
Al3_2 Au14_4 2.682290 1_455
Al3_2 Au7_6 2.713861 1_455
Al3_2 Au7_2 2.713861 1_555
Al3_2 Au16_2 2.757288 1_555
Al3_2 Au18_4 2.759494 1_455
Al3_2 Au18_0 2.759494 1_555
Al3_2 Au11_2 2.793571 1_555
Al3_2 Au11_6 2.793571 1_455
Al3_3 Au14_1 2.682290 1_555
Al3_3 Au14_5 2.682290 1_455
Al3_3 Au7_7 2.713861 1_455
Al3_3 Au7_3 2.713861 1_555
Al3_3 Au16_3 2.757288 1_555
Al3_3 Au18_1 2.759494 1_555
Al3_3 Au18_5 2.759494 1_455
Al3_3 Au11_3 2.793571 1_555
Al3_3 Au11_7 2.793571 1_455
Al3_4 Au14_2 2.682290 1_545
Al3_4 Au14_6 2.682290 1_545
Al3_4 Au7_0 2.713861 1_555
Al3_4 Au7_4 2.713861 1_555
Al3_4 Au16_4 2.757288 1_555
Al3_4 Au18_2 2.759494 1_545
Al3_4 Au18_6 2.759494 1_545
Al3_4 Au11_0 2.793571 1_555
Al3_4 Au11_4 2.793571 1_555
Al3_5 Au14_3 2.682290 1_545
Al3_5 Au14_7 2.682290 1_545
Al3_5 Au7_1 2.713861 1_555
Al3_5 Au7_5 2.713861 1_555
Al3_5 Au16_5 2.757288 1_555
Al3_5 Au18_7 2.759494 1_545
Al3_5 Au18_3 2.759494 1_545
Al3_5 Au11_1 2.793571 1_555
Al3_5 Au11_5 2.793571 1_555
Al3_6 Au14_0 2.682290 1_555
Al3_6 Au14_4 2.682290 1_555
Al3_6 Au7_2 2.713861 1_555
Al3_6 Au7_6 2.713861 1_555
Al3_6 Au16_6 2.757288 1_555
Al3_6 Au18_4 2.759494 1_555
Al3_6 Au18_0 2.759494 1_555
Al3_6 Au11_2 2.793571 1_555
Al3_6 Au11_6 2.793571 1_555
Al3_7 Au14_1 2.682290 1_555
Al3_7 Au14_5 2.682290 1_555
Al3_7 Au7_3 2.713861 1_555
Al3_7 Au7_7 2.713861 1_555
Al3_7 Au16_7 2.757288 1_555
Al3_7 Au18_1 2.759494 1_555
Al3_7 Au18_5 2.759494 1_555
Al3_7 Au11_3 2.793571 1_555
Al3_7 Au11_7 2.793571 1_555
Al4_0 Au13_0 2.682290 1_555
Al4_0 Au13_4 2.682290 1_555
Al4_0 Au4_4 2.713861 1_555
Al4_0 Au4_0 2.713861 1_555
Al4_0 Au19_0 2.757288 1_555
Al4_0 Au17_0 2.759494 1_555
Al4_0 Au17_4 2.759494 1_555
Al4_0 Au8_0 2.793571 1_555
Al4_0 Au8_4 2.793571 1_555
Al4_1 Au13_1 2.682290 1_555
Al4_1 Au13_5 2.682290 1_555
Al4_1 Au4_1 2.713861 1_555
Al4_1 Au4_5 2.713861 1_555
Al4_1 Au19_1 2.757288 1_555
Al4_1 Au17_5 2.759494 1_555
Al4_1 Au17_1 2.759494 1_555
Al4_1 Au8_1 2.793571 1_555
Al4_1 Au8_5 2.793571 1_555
Al4_2 Au13_2 2.682290 1_555
Al4_2 Au13_6 2.682290 1_555
Al4_2 Au4_2 2.713861 1_555
Al4_2 Au4_6 2.713861 1_555
Al4_2 Au19_2 2.757288 1_555
Al4_2 Au17_6 2.759494 1_555
Al4_2 Au17_2 2.759494 1_555
Al4_2 Au8_2 2.793571 1_555
Al4_2 Au8_6 2.793571 1_555
Al4_3 Au13_3 2.682290 1_555
Al4_3 Au13_7 2.682290 1_555
Al4_3 Au4_3 2.713861 1_555
Al4_3 Au4_7 2.713861 1_555
Al4_3 Au19_3 2.757288 1_555
Al4_3 Au17_3 2.759494 1_555
Al4_3 Au17_7 2.759494 1_555
Al4_3 Au8_7 2.793571 1_555
Al4_3 Au8_3 2.793571 1_555
Al4_4 Au13_0 2.682290 1_655
Al4_4 Au13_4 2.682290 1_555
Al4_4 Au4_4 2.713861 1_555
Al4_4 Au4_0 2.713861 1_655
Al4_4 Au19_4 2.757288 1_555
Al4_4 Au17_4 2.759494 1_555
Al4_4 Au17_0 2.759494 1_655
Al4_4 Au8_0 2.793571 1_655
Al4_4 Au8_4 2.793571 1_555
Al4_5 Au13_5 2.682290 1_555
Al4_5 Au13_1 2.682290 1_655
Al4_5 Au4_1 2.713861 1_655
Al4_5 Au4_5 2.713861 1_555
Al4_5 Au19_5 2.757288 1_555
Al4_5 Au17_1 2.759494 1_655
Al4_5 Au17_5 2.759494 1_555
Al4_5 Au8_1 2.793571 1_655
Al4_5 Au8_5 2.793571 1_555
Al4_6 Au13_2 2.682290 1_655
Al4_6 Au13_6 2.682290 1_555
Al4_6 Au4_2 2.713861 1_655
Al4_6 Au4_6 2.713861 1_555
Al4_6 Au19_6 2.757288 1_555
Al4_6 Au17_2 2.759494 1_655
Al4_6 Au17_6 2.759494 1_555
Al4_6 Au8_2 2.793571 1_655
Al4_6 Au8_6 2.793571 1_555
Al4_7 Au13_3 2.682290 1_655
Al4_7 Au13_7 2.682290 1_555
Al4_7 Au4_7 2.713861 1_555
Al4_7 Au4_3 2.713861 1_655
Al4_7 Au19_7 2.757288 1_555
Al4_7 Au17_3 2.759494 1_655
Al4_7 Au17_7 2.759494 1_555
Al4_7 Au8_7 2.793571 1_555
Al4_7 Au8_3 2.793571 1_655
Al5_0 Au12_0 2.682290 1_555
Al5_0 Au12_4 2.682290 1_555
Al5_0 Au5_0 2.713861 1_555
Al5_0 Au5_4 2.713861 1_555
Al5_0 Au18_0 2.757288 1_555
Al5_0 Au16_0 2.759494 1_555
Al5_0 Au16_4 2.759494 1_555
Al5_0 Au9_4 2.793571 1_555
Al5_0 Au9_0 2.793571 1_555
Al5_1 Au12_1 2.682290 1_555
Al5_1 Au12_5 2.682290 1_555
Al5_1 Au5_1 2.713861 1_555
Al5_1 Au5_5 2.713861 1_555
Al5_1 Au18_1 2.757288 1_555
Al5_1 Au16_1 2.759494 1_555
Al5_1 Au16_5 2.759494 1_555
Al5_1 Au9_5 2.793571 1_555
Al5_1 Au9_1 2.793571 1_555
Al5_2 Au12_2 2.682290 1_555
Al5_2 Au12_6 2.682290 1_555
Al5_2 Au5_2 2.713861 1_555
Al5_2 Au5_6 2.713861 1_555
Al5_2 Au18_2 2.757288 1_555
Al5_2 Au16_6 2.759494 1_555
Al5_2 Au16_2 2.759494 1_555
Al5_2 Au9_6 2.793571 1_555
Al5_2 Au9_2 2.793571 1_555
Al5_3 Au12_7 2.682290 1_555
Al5_3 Au12_3 2.682290 1_555
Al5_3 Au5_7 2.713861 1_555
Al5_3 Au5_3 2.713861 1_555
Al5_3 Au18_3 2.757288 1_555
Al5_3 Au16_3 2.759494 1_555
Al5_3 Au16_7 2.759494 1_555
Al5_3 Au9_3 2.793571 1_555
Al5_3 Au9_7 2.793571 1_555
Al5_4 Au12_0 2.682290 1_655
Al5_4 Au12_4 2.682290 1_555
Al5_4 Au5_4 2.713861 1_555
Al5_4 Au5_0 2.713861 1_655
Al5_4 Au18_4 2.757288 1_555
Al5_4 Au16_0 2.759494 1_655
Al5_4 Au16_4 2.759494 1_555
Al5_4 Au9_4 2.793571 1_555
Al5_4 Au9_0 2.793571 1_655
Al5_5 Au12_1 2.682290 1_655
Al5_5 Au12_5 2.682290 1_555
Al5_5 Au5_1 2.713861 1_655
Al5_5 Au5_5 2.713861 1_555
Al5_5 Au18_5 2.757288 1_555
Al5_5 Au16_5 2.759494 1_555
Al5_5 Au16_1 2.759494 1_655
Al5_5 Au9_1 2.793571 1_655
Al5_5 Au9_5 2.793571 1_555
Al5_6 Au12_2 2.682290 1_655
Al5_6 Au12_6 2.682290 1_555
Al5_6 Au5_2 2.713861 1_655
Al5_6 Au5_6 2.713861 1_555
Al5_6 Au18_6 2.757288 1_555
Al5_6 Au16_2 2.759494 1_655
Al5_6 Au16_6 2.759494 1_555
Al5_6 Au9_6 2.793571 1_555
Al5_6 Au9_2 2.793571 1_655
Al5_7 Au12_7 2.682290 1_555
Al5_7 Au12_3 2.682290 1_655
Al5_7 Au5_3 2.713861 1_655
Al5_7 Au5_7 2.713861 1_555
Al5_7 Au18_7 2.757288 1_555
Al5_7 Au16_3 2.759494 1_655
Al5_7 Au16_7 2.759494 1_555
Al5_7 Au9_3 2.793571 1_655
Al5_7 Au9_7 2.793571 1_555
Al6_0 Au8_0 2.646002 1_555
Al6_0 Au6_2 2.662411 1_545
Al6_0 Au6_6 2.662411 1_445
Al6_0 Au2_6 2.714921 1_445
Al6_0 Au2_2 2.714921 1_545
Al6_0 Au3_4 2.761062 1_455
Al6_0 Au3_0 2.761062 1_555
Al6_0 Au19_0 2.832618 1_555
Al6_0 Au19_4 2.832618 1_455
Al6_1 Au8_1 2.646002 1_555
Al6_1 Au6_3 2.662411 1_545
Al6_1 Au6_7 2.662411 1_445
Al6_1 Au2_3 2.714921 1_545
Al6_1 Au2_7 2.714921 1_445
Al6_1 Au3_1 2.761062 1_555
Al6_1 Au3_5 2.761062 1_455
Al6_1 Au19_1 2.832618 1_555
Al6_1 Au19_5 2.832618 1_455
Al6_2 Au8_2 2.646002 1_555
Al6_2 Au6_0 2.662411 1_555
Al6_2 Au6_4 2.662411 1_455
Al6_2 Au2_0 2.714921 1_555
Al6_2 Au2_4 2.714921 1_455
Al6_2 Au3_6 2.761062 1_455
Al6_2 Au3_2 2.761062 1_555
Al6_2 Au19_6 2.832618 1_455
Al6_2 Au19_2 2.832618 1_555
Al6_3 Au8_3 2.646002 1_555
Al6_3 Au6_1 2.662411 1_555
Al6_3 Au6_5 2.662411 1_455
Al6_3 Au2_5 2.714921 1_455
Al6_3 Au2_1 2.714921 1_555
Al6_3 Au3_7 2.761062 1_455
Al6_3 Au3_3 2.761062 1_555
Al6_3 Au19_3 2.832618 1_555
Al6_3 Au19_7 2.832618 1_455
Al6_4 Au8_4 2.646002 1_555
Al6_4 Au6_6 2.662411 1_545
Al6_4 Au6_2 2.662411 1_545
Al6_4 Au2_6 2.714921 1_545
Al6_4 Au2_2 2.714921 1_545
Al6_4 Au3_0 2.761062 1_555
Al6_4 Au3_4 2.761062 1_555
Al6_4 Au19_0 2.832618 1_555
Al6_4 Au19_4 2.832618 1_555
Al6_5 Au8_5 2.646002 1_555
Al6_5 Au6_3 2.662411 1_545
Al6_5 Au6_7 2.662411 1_545
Al6_5 Au2_7 2.714921 1_545
Al6_5 Au2_3 2.714921 1_545
Al6_5 Au3_1 2.761062 1_555
Al6_5 Au3_5 2.761062 1_555
Al6_5 Au19_1 2.832618 1_555
Al6_5 Au19_5 2.832618 1_555
Al6_6 Au8_6 2.646002 1_555
Al6_6 Au6_0 2.662411 1_555
Al6_6 Au6_4 2.662411 1_555
Al6_6 Au2_0 2.714921 1_555
Al6_6 Au2_4 2.714921 1_555
Al6_6 Au3_2 2.761062 1_555
Al6_6 Au3_6 2.761062 1_555
Al6_6 Au19_2 2.832618 1_555
Al6_6 Au19_6 2.832618 1_555
Al6_7 Au8_7 2.646002 1_555
Al6_7 Au6_1 2.662411 1_555
Al6_7 Au6_5 2.662411 1_555
Al6_7 Au2_1 2.714921 1_555
Al6_7 Au2_5 2.714921 1_555
Al6_7 Au3_3 2.761062 1_555
Al6_7 Au3_7 2.761062 1_555
Al6_7 Au19_3 2.832618 1_555
Al6_7 Au19_7 2.832618 1_555
Al7_0 Au9_0 2.646002 1_555
Al7_0 Au7_6 2.662411 1_455
Al7_0 Au7_2 2.662411 1_555
Al7_0 Au3_6 2.714921 1_455
Al7_0 Au3_2 2.714921 1_555
Al7_0 Au2_0 2.761062 1_555
Al7_0 Au2_4 2.761062 1_455
Al7_0 Au18_0 2.832618 1_555
Al7_0 Au18_4 2.832618 1_455
Al7_1 Au9_1 2.646002 1_555
Al7_1 Au7_3 2.662411 1_555
Al7_1 Au7_7 2.662411 1_455
Al7_1 Au3_3 2.714921 1_555
Al7_1 Au3_7 2.714921 1_455
Al7_1 Au2_5 2.761062 1_455
Al7_1 Au2_1 2.761062 1_555
Al7_1 Au18_1 2.832618 1_555
Al7_1 Au18_5 2.832618 1_455
Al7_2 Au9_2 2.646002 1_555
Al7_2 Au7_0 2.662411 1_565
Al7_2 Au7_4 2.662411 1_465
Al7_2 Au3_0 2.714921 1_565
Al7_2 Au3_4 2.714921 1_465
Al7_2 Au2_6 2.761062 1_455
Al7_2 Au2_2 2.761062 1_555
Al7_2 Au18_6 2.832618 1_455
Al7_2 Au18_2 2.832618 1_555
Al7_3 Au9_3 2.646002 1_555
Al7_3 Au7_1 2.662411 1_565
Al7_3 Au7_5 2.662411 1_465
Al7_3 Au3_1 2.714921 1_565
Al7_3 Au3_5 2.714921 1_465
Al7_3 Au2_3 2.761062 1_555
Al7_3 Au2_7 2.761062 1_455
Al7_3 Au18_3 2.832618 1_555
Al7_3 Au18_7 2.832618 1_455
Al7_4 Au9_4 2.646002 1_555
Al7_4 Au7_6 2.662411 1_555
Al7_4 Au7_2 2.662411 1_555
Al7_4 Au3_2 2.714921 1_555
Al7_4 Au3_6 2.714921 1_555
Al7_4 Au2_0 2.761062 1_555
Al7_4 Au2_4 2.761062 1_555
Al7_4 Au18_0 2.832618 1_555
Al7_4 Au18_4 2.832618 1_555
Al7_5 Au9_5 2.646002 1_555
Al7_5 Au7_3 2.662411 1_555
Al7_5 Au7_7 2.662411 1_555
Al7_5 Au3_3 2.714921 1_555
Al7_5 Au3_7 2.714921 1_555
Al7_5 Au2_5 2.761062 1_555
Al7_5 Au2_1 2.761062 1_555
Al7_5 Au18_1 2.832618 1_555
Al7_5 Au18_5 2.832618 1_555
Al7_6 Au9_6 2.646002 1_555
Al7_6 Au7_0 2.662411 1_565
Al7_6 Au7_4 2.662411 1_565
Al7_6 Au3_0 2.714921 1_565
Al7_6 Au3_4 2.714921 1_565
Al7_6 Au2_2 2.761062 1_555
Al7_6 Au2_6 2.761062 1_555
Al7_6 Au18_6 2.832618 1_555
Al7_6 Au18_2 2.832618 1_555
Al7_7 Au9_7 2.646002 1_555
Al7_7 Au7_1 2.662411 1_565
Al7_7 Au7_5 2.662411 1_565
Al7_7 Au3_1 2.714921 1_565
Al7_7 Au3_5 2.714921 1_565
Al7_7 Au2_7 2.761062 1_555
Al7_7 Au2_3 2.761062 1_555
Al7_7 Au18_3 2.832618 1_555
Al7_7 Au18_7 2.832618 1_555
Al8_0 Au10_0 2.646002 1_555
Al8_0 Au4_0 2.662411 1_555
Al8_0 Au4_4 2.662411 1_555
Al8_0 Au0_0 2.714921 1_555
Al8_0 Au0_4 2.714921 1_555
Al8_0 Au1_1 2.761062 1_554
Al8_0 Au1_5 2.761062 1_554
Al8_0 Au17_4 2.832618 1_555
Al8_0 Au17_0 2.832618 1_555
Al8_1 Au10_1 2.646002 1_555
Al8_1 Au4_1 2.662411 1_555
Al8_1 Au4_5 2.662411 1_555
Al8_1 Au0_5 2.714921 1_555
Al8_1 Au0_1 2.714921 1_555
Al8_1 Au1_4 2.761062 1_555
Al8_1 Au1_0 2.761062 1_555
Al8_1 Au17_1 2.832618 1_555
Al8_1 Au17_5 2.832618 1_555
Al8_2 Au10_2 2.646002 1_555
Al8_2 Au4_2 2.662411 1_555
Al8_2 Au4_6 2.662411 1_555
Al8_2 Au0_6 2.714921 1_555
Al8_2 Au0_2 2.714921 1_555
Al8_2 Au1_3 2.761062 1_554
Al8_2 Au1_7 2.761062 1_554
Al8_2 Au17_6 2.832618 1_555
Al8_2 Au17_2 2.832618 1_555
Al8_3 Au10_3 2.646002 1_555
Al8_3 Au4_3 2.662411 1_555
Al8_3 Au4_7 2.662411 1_555
Al8_3 Au0_7 2.714921 1_555
Al8_3 Au0_3 2.714921 1_555
Al8_3 Au1_2 2.761062 1_555
Al8_3 Au1_6 2.761062 1_555
Al8_3 Au17_3 2.832618 1_555
Al8_3 Au17_7 2.832618 1_555
Al8_4 Au10_4 2.646002 1_555
Al8_4 Au4_4 2.662411 1_555
Al8_4 Au4_0 2.662411 1_655
Al8_4 Au0_4 2.714921 1_555
Al8_4 Au0_0 2.714921 1_655
Al8_4 Au1_1 2.761062 1_654
Al8_4 Au1_5 2.761062 1_554
Al8_4 Au17_4 2.832618 1_555
Al8_4 Au17_0 2.832618 1_655
Al8_5 Au10_5 2.646002 1_555
Al8_5 Au4_1 2.662411 1_655
Al8_5 Au4_5 2.662411 1_555
Al8_5 Au0_5 2.714921 1_555
Al8_5 Au0_1 2.714921 1_655
Al8_5 Au1_4 2.761062 1_555
Al8_5 Au1_0 2.761062 1_655
Al8_5 Au17_1 2.832618 1_655
Al8_5 Au17_5 2.832618 1_555
Al8_6 Au10_6 2.646002 1_555
Al8_6 Au4_2 2.662411 1_655
Al8_6 Au4_6 2.662411 1_555
Al8_6 Au0_6 2.714921 1_555
Al8_6 Au0_2 2.714921 1_655
Al8_6 Au1_3 2.761062 1_654
Al8_6 Au1_7 2.761062 1_554
Al8_6 Au17_2 2.832618 1_655
Al8_6 Au17_6 2.832618 1_555
Al8_7 Au10_7 2.646002 1_555
Al8_7 Au4_7 2.662411 1_555
Al8_7 Au4_3 2.662411 1_655
Al8_7 Au0_3 2.714921 1_655
Al8_7 Au0_7 2.714921 1_555
Al8_7 Au1_2 2.761062 1_655
Al8_7 Au1_6 2.761062 1_555
Al8_7 Au17_3 2.832618 1_655
Al8_7 Au17_7 2.832618 1_555
Al9_0 Au11_0 2.646002 1_555
Al9_0 Au5_0 2.662411 1_555
Al9_0 Au5_4 2.662411 1_555
Al9_0 Au1_0 2.714921 1_555
Al9_0 Au1_4 2.714921 1_555
Al9_0 Au0_1 2.761062 1_555
Al9_0 Au0_5 2.761062 1_555
Al9_0 Au16_0 2.832618 1_555
Al9_0 Au16_4 2.832618 1_555
Al9_1 Au11_1 2.646002 1_555
Al9_1 Au5_5 2.662411 1_555
Al9_1 Au5_1 2.662411 1_555
Al9_1 Au1_1 2.714921 1_555
Al9_1 Au1_5 2.714921 1_555
Al9_1 Au0_0 2.761062 1_556
Al9_1 Au0_4 2.761062 1_556
Al9_1 Au16_5 2.832618 1_555
Al9_1 Au16_1 2.832618 1_555
Al9_2 Au11_2 2.646002 1_555
Al9_2 Au5_2 2.662411 1_555
Al9_2 Au5_6 2.662411 1_555
Al9_2 Au1_2 2.714921 1_555
Al9_2 Au1_6 2.714921 1_555
Al9_2 Au0_3 2.761062 1_555
Al9_2 Au0_7 2.761062 1_555
Al9_2 Au16_2 2.832618 1_555
Al9_2 Au16_6 2.832618 1_555
Al9_3 Au11_3 2.646002 1_555
Al9_3 Au5_7 2.662411 1_555
Al9_3 Au5_3 2.662411 1_555
Al9_3 Au1_3 2.714921 1_555
Al9_3 Au1_7 2.714921 1_555
Al9_3 Au0_2 2.761062 1_556
Al9_3 Au0_6 2.761062 1_556
Al9_3 Au16_3 2.832618 1_555
Al9_3 Au16_7 2.832618 1_555
Al9_4 Au11_4 2.646002 1_555
Al9_4 Au5_0 2.662411 1_655
Al9_4 Au5_4 2.662411 1_555
Al9_4 Au1_4 2.714921 1_555
Al9_4 Au1_0 2.714921 1_655
Al9_4 Au0_1 2.761062 1_655
Al9_4 Au0_5 2.761062 1_555
Al9_4 Au16_0 2.832618 1_655
Al9_4 Au16_4 2.832618 1_555
Al9_5 Au11_5 2.646002 1_555
Al9_5 Au5_5 2.662411 1_555
Al9_5 Au5_1 2.662411 1_655
Al9_5 Au1_5 2.714921 1_555
Al9_5 Au1_1 2.714921 1_655
Al9_5 Au0_0 2.761062 1_656
Al9_5 Au0_4 2.761062 1_556
Al9_5 Au16_5 2.832618 1_555
Al9_5 Au16_1 2.832618 1_655
Al9_6 Au11_6 2.646002 1_555
Al9_6 Au5_2 2.662411 1_655
Al9_6 Au5_6 2.662411 1_555
Al9_6 Au1_2 2.714921 1_655
Al9_6 Au1_6 2.714921 1_555
Al9_6 Au0_3 2.761062 1_655
Al9_6 Au0_7 2.761062 1_555
Al9_6 Au16_2 2.832618 1_655
Al9_6 Au16_6 2.832618 1_555
Al9_7 Au11_7 2.646002 1_555
Al9_7 Au5_3 2.662411 1_655
Al9_7 Au5_7 2.662411 1_555
Al9_7 Au1_3 2.714921 1_655
Al9_7 Au1_7 2.714921 1_555
Al9_7 Au0_2 2.761062 1_656
Al9_7 Au0_6 2.761062 1_556
Al9_7 Au16_3 2.832618 1_655
Al9_7 Au16_7 2.832618 1_555
Au0_0 Au1_1 2.809997 1_554
Au0_0 Au11_1 2.908114 1_554
Au0_0 Au11_5 2.908114 1_454
Au0_0 Au15_0 2.932176 1_555
Au0_0 Au15_4 2.932176 1_455
Au0_0 Au4_0 2.966182 1_555
Au0_0 Au0_4 3.215065 1_555
Au0_0 Au0_4 3.215065 1_455
Au0_1 Au1_0 2.809997 1_555
Au0_1 Au11_0 2.908114 1_555
Au0_1 Au11_4 2.908114 1_455
Au0_1 Au15_1 2.932176 1_555
Au0_1 Au15_5 2.932176 1_455
Au0_1 Au4_1 2.966182 1_555
Au0_1 Au0_5 3.215065 1_455
Au0_1 Au0_5 3.215065 1_555
Au0_2 Au1_3 2.809997 1_554
Au0_2 Au11_3 2.908114 1_554
Au0_2 Au11_7 2.908114 1_454
Au0_2 Au15_2 2.932176 1_555
Au0_2 Au15_6 2.932176 1_455
Au0_2 Au4_2 2.966182 1_555
Au0_2 Au0_6 3.215065 1_555
Au0_2 Au0_6 3.215065 1_455
Au0_3 Au1_2 2.809997 1_555
Au0_3 Au11_2 2.908114 1_555
Au0_3 Au11_6 2.908114 1_455
Au0_3 Au15_3 2.932176 1_555
Au0_3 Au15_7 2.932176 1_455
Au0_3 Au4_3 2.966182 1_555
Au0_3 Au0_7 3.215065 1_555
Au0_3 Au0_7 3.215065 1_455
Au0_4 Au1_5 2.809997 1_554
Au0_4 Au11_1 2.908114 1_554
Au0_4 Au11_5 2.908114 1_554
Au0_4 Au15_4 2.932176 1_555
Au0_4 Au15_0 2.932176 1_555
Au0_4 Au4_4 2.966182 1_555
Au0_5 Au1_4 2.809997 1_555
Au0_5 Au11_0 2.908114 1_555
Au0_5 Au11_4 2.908114 1_555
Au0_5 Au15_1 2.932176 1_555
Au0_5 Au15_5 2.932176 1_555
Au0_5 Au4_5 2.966182 1_555
Au0_6 Au1_7 2.809997 1_554
Au0_6 Au11_3 2.908114 1_554
Au0_6 Au11_7 2.908114 1_554
Au0_6 Au15_2 2.932176 1_555
Au0_6 Au15_6 2.932176 1_555
Au0_6 Au4_6 2.966182 1_555
Au0_7 Au1_6 2.809997 1_555
Au0_7 Au11_2 2.908114 1_555
Au0_7 Au11_6 2.908114 1_555
Au0_7 Au15_3 2.932176 1_555
Au0_7 Au15_7 2.932176 1_555
Au0_7 Au4_7 2.966182 1_555
Au1_0 Au5_0 2.966182 1_555
Au1_0 Au1_4 3.215065 1_455
Au1_0 Au1_4 3.215065 1_555
Au1_1 Au5_1 2.966182 1_555
Au1_1 Au1_5 3.215065 1_455
Au1_1 Au1_5 3.215065 1_555
Au1_2 Au5_2 2.966182 1_555
Au1_2 Au1_6 3.215065 1_455
Au1_2 Au1_6 3.215065 1_555
Au1_3 Au5_3 2.966182 1_555
Au1_3 Au1_7 3.215065 1_455
Au1_3 Au1_7 3.215065 1_555
Au1_4 Au5_4 2.966182 1_555
Au1_5 Au5_5 2.966182 1_555
Au1_6 Au5_6 2.966182 1_555
Au1_7 Au5_7 2.966182 1_555
Au2_0 Au3_2 2.809997 1_555
Au2_0 Au9_4 2.908114 1_555
Au2_0 Au9_0 2.908114 1_555
Au2_0 Au6_0 2.966182 1_555
Au2_0 Au2_4 3.215065 1_555
Au2_0 Au2_4 3.215065 1_455
Au2_1 Au3_3 2.809997 1_555
Au2_1 Au9_5 2.908114 1_555
Au2_1 Au9_1 2.908114 1_555
Au2_1 Au6_1 2.966182 1_555
Au2_1 Au2_5 3.215065 1_455
Au2_1 Au2_5 3.215065 1_555
Au2_2 Au3_0 2.809997 1_565
Au2_2 Au9_6 2.908114 1_555
Au2_2 Au9_2 2.908114 1_555
Au2_2 Au6_2 2.966182 1_555
Au2_2 Au2_6 3.215065 1_455
Au2_2 Au2_6 3.215065 1_555
Au2_3 Au3_1 2.809997 1_565
Au2_3 Au9_7 2.908114 1_555
Au2_3 Au9_3 2.908114 1_555
Au2_3 Au6_3 2.966182 1_555
Au2_3 Au2_7 3.215065 1_555
Au2_3 Au2_7 3.215065 1_455
Au2_4 Au3_6 2.809997 1_555
Au2_4 Au9_4 2.908114 1_555
Au2_4 Au9_0 2.908114 1_655
Au2_4 Au6_4 2.966182 1_555
Au2_5 Au3_7 2.809997 1_555
Au2_5 Au9_1 2.908114 1_655
Au2_5 Au9_5 2.908114 1_555
Au2_5 Au6_5 2.966182 1_555
Au2_6 Au3_4 2.809997 1_565
Au2_6 Au9_6 2.908114 1_555
Au2_6 Au9_2 2.908114 1_655
Au2_6 Au6_6 2.966182 1_555
Au2_7 Au3_5 2.809997 1_565
Au2_7 Au9_7 2.908114 1_555
Au2_7 Au9_3 2.908114 1_655
Au2_7 Au6_7 2.966182 1_555
Au3_0 Au8_0 2.908114 1_555
Au3_0 Au8_4 2.908114 1_555
Au3_0 Au7_0 2.966182 1_555
Au3_0 Au3_4 3.215065 1_455
Au3_0 Au3_4 3.215065 1_555
Au3_1 Au8_5 2.908114 1_555
Au3_1 Au8_1 2.908114 1_555
Au3_1 Au7_1 2.966182 1_555
Au3_1 Au3_5 3.215065 1_555
Au3_1 Au3_5 3.215065 1_455
Au3_2 Au8_2 2.908114 1_555
Au3_2 Au8_6 2.908114 1_555
Au3_2 Au7_2 2.966182 1_555
Au3_2 Au3_6 3.215065 1_455
Au3_2 Au3_6 3.215065 1_555
Au3_3 Au8_7 2.908114 1_555
Au3_3 Au8_3 2.908114 1_555
Au3_3 Au7_3 2.966182 1_555
Au3_3 Au3_7 3.215065 1_455
Au3_3 Au3_7 3.215065 1_555
Au3_4 Au8_0 2.908114 1_655
Au3_4 Au8_4 2.908114 1_555
Au3_4 Au7_4 2.966182 1_555
Au3_5 Au8_5 2.908114 1_555
Au3_5 Au8_1 2.908114 1_655
Au3_5 Au7_5 2.966182 1_555
Au3_6 Au8_2 2.908114 1_655
Au3_6 Au8_6 2.908114 1_555
Au3_6 Au7_6 2.966182 1_555
Au3_7 Au8_7 2.908114 1_555
Au3_7 Au8_3 2.908114 1_655
Au3_7 Au7_7 2.966182 1_555
Au4_0 Au4_4 3.215065 1_455
Au4_0 Au4_4 3.215065 1_555
Au4_1 Au4_5 3.215065 1_555
Au4_1 Au4_5 3.215065 1_455
Au4_2 Au4_6 3.215065 1_555
Au4_2 Au4_6 3.215065 1_455
Au4_3 Au4_7 3.215065 1_555
Au4_3 Au4_7 3.215065 1_455
Au5_0 Au5_4 3.215065 1_455
Au5_0 Au5_4 3.215065 1_555
Au5_1 Au5_5 3.215065 1_555
Au5_1 Au5_5 3.215065 1_455
Au5_2 Au5_6 3.215065 1_455
Au5_2 Au5_6 3.215065 1_555
Au5_3 Au5_7 3.215065 1_555
Au5_3 Au5_7 3.215065 1_455
Au6_0 Au6_4 3.215065 1_555
Au6_0 Au6_4 3.215065 1_455
Au6_1 Au6_5 3.215065 1_455
Au6_1 Au6_5 3.215065 1_555
Au6_2 Au6_6 3.215065 1_555
Au6_2 Au6_6 3.215065 1_455
Au6_3 Au6_7 3.215065 1_555
Au6_3 Au6_7 3.215065 1_455
Au7_0 Au7_4 3.215065 1_555
Au7_0 Au7_4 3.215065 1_455
Au7_1 Au7_5 3.215065 1_555
Au7_1 Au7_5 3.215065 1_455
Au7_2 Au7_6 3.215065 1_455
Au7_2 Au7_6 3.215065 1_555
Au7_3 Au7_7 3.215065 1_455
Au7_3 Au7_7 3.215065 1_555
Au8_0 Au8_4 3.215065 1_555
Au8_0 Au8_4 3.215065 1_455
Au8_1 Au8_5 3.215065 1_555
Au8_1 Au8_5 3.215065 1_455
Au8_2 Au8_6 3.215065 1_555
Au8_2 Au8_6 3.215065 1_455
Au8_3 Au8_7 3.215065 1_455
Au8_3 Au8_7 3.215065 1_555
Au9_0 Au9_4 3.215065 1_455
Au9_0 Au9_4 3.215065 1_555
Au9_1 Au9_5 3.215065 1_555
Au9_1 Au9_5 3.215065 1_455
Au9_2 Au9_6 3.215065 1_455
Au9_2 Au9_6 3.215065 1_555
Au9_3 Au9_7 3.215065 1_555
Au9_3 Au9_7 3.215065 1_455
Au10_0 Au15_2 2.752098 1_555
Au10_0 Au1_1 2.908114 1_554
Au10_0 Au1_5 2.908114 1_554
Au10_0 Au17_0 2.932960 1_555
Au10_0 Au17_4 2.932960 1_555
Au10_0 Au10_4 3.215065 1_555
Au10_0 Au10_4 3.215065 1_455
Au10_1 Au15_3 2.752098 1_555
Au10_1 Au1_0 2.908114 1_555
Au10_1 Au1_4 2.908114 1_555
Au10_1 Au17_1 2.932960 1_555
Au10_1 Au17_5 2.932960 1_555
Au10_1 Au10_5 3.215065 1_455
Au10_1 Au10_5 3.215065 1_555
Au10_2 Au15_0 2.752098 1_565
Au10_2 Au1_3 2.908114 1_554
Au10_2 Au1_7 2.908114 1_554
Au10_2 Au17_6 2.932960 1_555
Au10_2 Au17_2 2.932960 1_555
Au10_2 Au10_6 3.215065 1_555
Au10_2 Au10_6 3.215065 1_455
Au10_3 Au15_1 2.752098 1_565
Au10_3 Au1_2 2.908114 1_555
Au10_3 Au1_6 2.908114 1_555
Au10_3 Au17_3 2.932960 1_555
Au10_3 Au17_7 2.932960 1_555
Au10_3 Au10_7 3.215065 1_555
Au10_3 Au10_7 3.215065 1_455
Au10_4 Au15_6 2.752098 1_555
Au10_4 Au1_5 2.908114 1_554
Au10_4 Au1_1 2.908114 1_654
Au10_4 Au17_0 2.932960 1_655
Au10_4 Au17_4 2.932960 1_555
Au10_5 Au15_7 2.752098 1_555
Au10_5 Au1_4 2.908114 1_555
Au10_5 Au1_0 2.908114 1_655
Au10_5 Au17_1 2.932960 1_655
Au10_5 Au17_5 2.932960 1_555
Au10_6 Au15_4 2.752098 1_565
Au10_6 Au1_3 2.908114 1_654
Au10_6 Au1_7 2.908114 1_554
Au10_6 Au17_2 2.932960 1_655
Au10_6 Au17_6 2.932960 1_555
Au10_7 Au15_5 2.752098 1_565
Au10_7 Au1_2 2.908114 1_655
Au10_7 Au1_6 2.908114 1_555
Au10_7 Au17_3 2.932960 1_655
Au10_7 Au17_7 2.932960 1_555
Au11_0 Au14_2 2.752098 1_545
Au11_0 Au16_4 2.932960 1_555
Au11_0 Au16_0 2.932960 1_555
Au11_0 Au11_4 3.215065 1_455
Au11_0 Au11_4 3.215065 1_555
Au11_1 Au14_3 2.752098 1_545
Au11_1 Au16_5 2.932960 1_555
Au11_1 Au16_1 2.932960 1_555
Au11_1 Au11_5 3.215065 1_455
Au11_1 Au11_5 3.215065 1_555
Au11_2 Au14_0 2.752098 1_555
Au11_2 Au16_2 2.932960 1_555
Au11_2 Au16_6 2.932960 1_555
Au11_2 Au11_6 3.215065 1_555
Au11_2 Au11_6 3.215065 1_455
Au11_3 Au14_1 2.752098 1_555
Au11_3 Au16_7 2.932960 1_555
Au11_3 Au16_3 2.932960 1_555
Au11_3 Au11_7 3.215065 1_555
Au11_3 Au11_7 3.215065 1_455
Au11_4 Au14_6 2.752098 1_545
Au11_4 Au16_0 2.932960 1_655
Au11_4 Au16_4 2.932960 1_555
Au11_5 Au14_7 2.752098 1_545
Au11_5 Au16_1 2.932960 1_655
Au11_5 Au16_5 2.932960 1_555
Au11_6 Au14_4 2.752098 1_555
Au11_6 Au16_2 2.932960 1_655
Au11_6 Au16_6 2.932960 1_555
Au11_7 Au14_5 2.752098 1_555
Au11_7 Au16_7 2.932960 1_555
Au11_7 Au16_3 2.932960 1_655
Au12_0 Au9_0 2.752098 1_555
Au12_0 Au7_4 2.920128 1_455
Au12_0 Au7_0 2.920128 1_555
Au12_0 Au3_4 2.932176 1_455
Au12_0 Au3_0 2.932176 1_555
Au12_0 Au16_0 3.122794 1_555
Au12_1 Au9_1 2.752098 1_555
Au12_1 Au7_5 2.920128 1_455
Au12_1 Au7_1 2.920128 1_555
Au12_1 Au3_5 2.932176 1_455
Au12_1 Au3_1 2.932176 1_555
Au12_1 Au16_1 3.122794 1_555
Au12_2 Au9_2 2.752098 1_555
Au12_2 Au7_6 2.920128 1_455
Au12_2 Au7_2 2.920128 1_555
Au12_2 Au3_2 2.932176 1_555
Au12_2 Au3_6 2.932176 1_455
Au12_2 Au16_2 3.122794 1_555
Au12_3 Au9_3 2.752098 1_555
Au12_3 Au7_3 2.920128 1_555
Au12_3 Au7_7 2.920128 1_455
Au12_3 Au3_7 2.932176 1_455
Au12_3 Au3_3 2.932176 1_555
Au12_3 Au16_3 3.122794 1_555
Au12_4 Au9_4 2.752098 1_555
Au12_4 Au7_0 2.920128 1_555
Au12_4 Au7_4 2.920128 1_555
Au12_4 Au3_0 2.932176 1_555
Au12_4 Au3_4 2.932176 1_555
Au12_4 Au16_4 3.122794 1_555
Au12_5 Au9_5 2.752098 1_555
Au12_5 Au7_1 2.920128 1_555
Au12_5 Au7_5 2.920128 1_555
Au12_5 Au3_5 2.932176 1_555
Au12_5 Au3_1 2.932176 1_555
Au12_5 Au16_5 3.122794 1_555
Au12_6 Au9_6 2.752098 1_555
Au12_6 Au7_6 2.920128 1_555
Au12_6 Au7_2 2.920128 1_555
Au12_6 Au3_2 2.932176 1_555
Au12_6 Au3_6 2.932176 1_555
Au12_6 Au16_6 3.122794 1_555
Au12_7 Au9_7 2.752098 1_555
Au12_7 Au7_3 2.920128 1_555
Au12_7 Au7_7 2.920128 1_555
Au12_7 Au3_7 2.932176 1_555
Au12_7 Au3_3 2.932176 1_555
Au12_7 Au16_7 3.122794 1_555
Au13_0 Au8_0 2.752098 1_555
Au13_0 Au6_4 2.920128 1_455
Au13_0 Au6_0 2.920128 1_555
Au13_0 Au2_0 2.932176 1_555
Au13_0 Au2_4 2.932176 1_455
Au13_0 Au17_0 3.122794 1_555
Au13_1 Au8_1 2.752098 1_555
Au13_1 Au6_1 2.920128 1_555
Au13_1 Au6_5 2.920128 1_455
Au13_1 Au2_1 2.932176 1_555
Au13_1 Au2_5 2.932176 1_455
Au13_1 Au17_1 3.122794 1_555
Au13_2 Au8_2 2.752098 1_555
Au13_2 Au6_6 2.920128 1_455
Au13_2 Au6_2 2.920128 1_555
Au13_2 Au2_2 2.932176 1_555
Au13_2 Au2_6 2.932176 1_455
Au13_2 Au17_2 3.122794 1_555
Au13_3 Au8_3 2.752098 1_555
Au13_3 Au6_3 2.920128 1_555
Au13_3 Au6_7 2.920128 1_455
Au13_3 Au2_7 2.932176 1_455
Au13_3 Au2_3 2.932176 1_555
Au13_3 Au17_3 3.122794 1_555
Au13_4 Au8_4 2.752098 1_555
Au13_4 Au6_4 2.920128 1_555
Au13_4 Au6_0 2.920128 1_555
Au13_4 Au2_0 2.932176 1_555
Au13_4 Au2_4 2.932176 1_555
Au13_4 Au17_4 3.122794 1_555
Au13_5 Au8_5 2.752098 1_555
Au13_5 Au6_1 2.920128 1_555
Au13_5 Au6_5 2.920128 1_555
Au13_5 Au2_1 2.932176 1_555
Au13_5 Au2_5 2.932176 1_555
Au13_5 Au17_5 3.122794 1_555
Au13_6 Au8_6 2.752098 1_555
Au13_6 Au6_6 2.920128 1_555
Au13_6 Au6_2 2.920128 1_555
Au13_6 Au2_2 2.932176 1_555
Au13_6 Au2_6 2.932176 1_555
Au13_6 Au17_6 3.122794 1_555
Au13_7 Au8_7 2.752098 1_555
Au13_7 Au6_7 2.920128 1_555
Au13_7 Au6_3 2.920128 1_555
Au13_7 Au2_3 2.932176 1_555
Au13_7 Au2_7 2.932176 1_555
Au13_7 Au17_7 3.122794 1_555
Au14_0 Au5_0 2.920128 1_555
Au14_0 Au5_4 2.920128 1_555
Au14_0 Au1_0 2.932176 1_555
Au14_0 Au1_4 2.932176 1_555
Au14_0 Au18_0 3.122794 1_555
Au14_1 Au5_1 2.920128 1_555
Au14_1 Au5_5 2.920128 1_555
Au14_1 Au1_1 2.932176 1_555
Au14_1 Au1_5 2.932176 1_555
Au14_1 Au18_1 3.122794 1_555
Au14_2 Au5_2 2.920128 1_555
Au14_2 Au5_6 2.920128 1_555
Au14_2 Au1_2 2.932176 1_555
Au14_2 Au1_6 2.932176 1_555
Au14_2 Au18_2 3.122794 1_555
Au14_3 Au5_7 2.920128 1_555
Au14_3 Au5_3 2.920128 1_555
Au14_3 Au1_3 2.932176 1_555
Au14_3 Au1_7 2.932176 1_555
Au14_3 Au18_3 3.122794 1_555
Au14_4 Au5_4 2.920128 1_555
Au14_4 Au5_0 2.920128 1_655
Au14_4 Au1_4 2.932176 1_555
Au14_4 Au1_0 2.932176 1_655
Au14_4 Au18_4 3.122794 1_555
Au14_5 Au5_5 2.920128 1_555
Au14_5 Au5_1 2.920128 1_655
Au14_5 Au1_5 2.932176 1_555
Au14_5 Au1_1 2.932176 1_655
Au14_5 Au18_5 3.122794 1_555
Au14_6 Au5_2 2.920128 1_655
Au14_6 Au5_6 2.920128 1_555
Au14_6 Au1_2 2.932176 1_655
Au14_6 Au1_6 2.932176 1_555
Au14_6 Au18_6 3.122794 1_555
Au14_7 Au5_7 2.920128 1_555
Au14_7 Au5_3 2.920128 1_655
Au14_7 Au1_3 2.932176 1_655
Au14_7 Au1_7 2.932176 1_555
Au14_7 Au18_7 3.122794 1_555
Au15_0 Au4_0 2.920128 1_555
Au15_0 Au4_4 2.920128 1_555
Au15_0 Au19_0 3.122794 1_555
Au15_1 Au4_1 2.920128 1_555
Au15_1 Au4_5 2.920128 1_555
Au15_1 Au19_1 3.122794 1_555
Au15_2 Au4_2 2.920128 1_555
Au15_2 Au4_6 2.920128 1_555
Au15_2 Au19_2 3.122794 1_555
Au15_3 Au4_3 2.920128 1_555
Au15_3 Au4_7 2.920128 1_555
Au15_3 Au19_3 3.122794 1_555
Au15_4 Au4_4 2.920128 1_555
Au15_4 Au4_0 2.920128 1_655
Au15_4 Au19_4 3.122794 1_555
Au15_5 Au4_1 2.920128 1_655
Au15_5 Au4_5 2.920128 1_555
Au15_5 Au19_5 3.122794 1_555
Au15_6 Au4_2 2.920128 1_655
Au15_6 Au4_6 2.920128 1_555
Au15_6 Au19_6 3.122794 1_555
Au15_7 Au4_7 2.920128 1_555
Au15_7 Au4_3 2.920128 1_655
Au15_7 Au19_7 3.122794 1_555
Au16_0 Au5_0 2.778125 1_555
Au16_0 Au7_4 2.918157 1_455
Au16_0 Au7_0 2.918157 1_555
Au16_0 Au16_4 3.215065 1_455
Au16_0 Au16_4 3.215065 1_555
Au16_1 Au5_1 2.778125 1_555
Au16_1 Au7_1 2.918157 1_555
Au16_1 Au7_5 2.918157 1_455
Au16_1 Au16_5 3.215065 1_455
Au16_1 Au16_5 3.215065 1_555
Au16_2 Au5_2 2.778125 1_555
Au16_2 Au7_2 2.918157 1_555
Au16_2 Au7_6 2.918157 1_455
Au16_2 Au16_6 3.215065 1_455
Au16_2 Au16_6 3.215065 1_555
Au16_3 Au5_3 2.778125 1_555
Au16_3 Au7_7 2.918157 1_455
Au16_3 Au7_3 2.918157 1_555
Au16_3 Au16_7 3.215065 1_455
Au16_3 Au16_7 3.215065 1_555
Au16_4 Au5_4 2.778125 1_555
Au16_4 Au7_0 2.918157 1_555
Au16_4 Au7_4 2.918157 1_555
Au16_5 Au5_5 2.778125 1_555
Au16_5 Au7_1 2.918157 1_555
Au16_5 Au7_5 2.918157 1_555
Au16_6 Au5_6 2.778125 1_555
Au16_6 Au7_2 2.918157 1_555
Au16_6 Au7_6 2.918157 1_555
Au16_7 Au5_7 2.778125 1_555
Au16_7 Au7_3 2.918157 1_555
Au16_7 Au7_7 2.918157 1_555
Au17_0 Au4_0 2.778125 1_555
Au17_0 Au6_0 2.918157 1_555
Au17_0 Au6_4 2.918157 1_455
Au17_0 Au17_4 3.215065 1_455
Au17_0 Au17_4 3.215065 1_555
Au17_1 Au4_1 2.778125 1_555
Au17_1 Au6_5 2.918157 1_455
Au17_1 Au6_1 2.918157 1_555
Au17_1 Au17_5 3.215065 1_455
Au17_1 Au17_5 3.215065 1_555
Au17_2 Au4_2 2.778125 1_555
Au17_2 Au6_2 2.918157 1_555
Au17_2 Au6_6 2.918157 1_455
Au17_2 Au17_6 3.215065 1_555
Au17_2 Au17_6 3.215065 1_455
Au17_3 Au4_3 2.778125 1_555
Au17_3 Au6_7 2.918157 1_455
Au17_3 Au6_3 2.918157 1_555
Au17_3 Au17_7 3.215065 1_455
Au17_3 Au17_7 3.215065 1_555
Au17_4 Au4_4 2.778125 1_555
Au17_4 Au6_0 2.918157 1_555
Au17_4 Au6_4 2.918157 1_555
Au17_5 Au4_5 2.778125 1_555
Au17_5 Au6_5 2.918157 1_555
Au17_5 Au6_1 2.918157 1_555
Au17_6 Au4_6 2.778125 1_555
Au17_6 Au6_2 2.918157 1_555
Au17_6 Au6_6 2.918157 1_555
Au17_7 Au4_7 2.778125 1_555
Au17_7 Au6_7 2.918157 1_555
Au17_7 Au6_3 2.918157 1_555
Au18_0 Au7_2 2.778125 1_555
Au18_0 Au5_0 2.918157 1_555
Au18_0 Au5_4 2.918157 1_555
Au18_0 Au9_4 2.932960 1_555
Au18_0 Au9_0 2.932960 1_555
Au18_0 Au18_4 3.215065 1_455
Au18_0 Au18_4 3.215065 1_555
Au18_1 Au7_3 2.778125 1_555
Au18_1 Au5_1 2.918157 1_555
Au18_1 Au5_5 2.918157 1_555
Au18_1 Au9_5 2.932960 1_555
Au18_1 Au9_1 2.932960 1_555
Au18_1 Au18_5 3.215065 1_455
Au18_1 Au18_5 3.215065 1_555
Au18_2 Au7_0 2.778125 1_565
Au18_2 Au5_2 2.918157 1_555
Au18_2 Au5_6 2.918157 1_555
Au18_2 Au9_2 2.932960 1_555
Au18_2 Au9_6 2.932960 1_555
Au18_2 Au18_6 3.215065 1_455
Au18_2 Au18_6 3.215065 1_555
Au18_3 Au7_1 2.778125 1_565
Au18_3 Au5_3 2.918157 1_555
Au18_3 Au5_7 2.918157 1_555
Au18_3 Au9_3 2.932960 1_555
Au18_3 Au9_7 2.932960 1_555
Au18_3 Au18_7 3.215065 1_455
Au18_3 Au18_7 3.215065 1_555
Au18_4 Au7_6 2.778125 1_555
Au18_4 Au5_4 2.918157 1_555
Au18_4 Au5_0 2.918157 1_655
Au18_4 Au9_0 2.932960 1_655
Au18_4 Au9_4 2.932960 1_555
Au18_5 Au7_7 2.778125 1_555
Au18_5 Au5_1 2.918157 1_655
Au18_5 Au5_5 2.918157 1_555
Au18_5 Au9_1 2.932960 1_655
Au18_5 Au9_5 2.932960 1_555
Au18_6 Au7_4 2.778125 1_565
Au18_6 Au5_2 2.918157 1_655
Au18_6 Au5_6 2.918157 1_555
Au18_6 Au9_2 2.932960 1_655
Au18_6 Au9_6 2.932960 1_555
Au18_7 Au7_5 2.778125 1_565
Au18_7 Au5_3 2.918157 1_655
Au18_7 Au5_7 2.918157 1_555
Au18_7 Au9_3 2.932960 1_655
Au18_7 Au9_7 2.932960 1_555
Au19_0 Au6_2 2.778125 1_545
Au19_0 Au4_4 2.918157 1_555
Au19_0 Au4_0 2.918157 1_555
Au19_0 Au8_4 2.932960 1_555
Au19_0 Au8_0 2.932960 1_555
Au19_0 Au19_4 3.215065 1_555
Au19_0 Au19_4 3.215065 1_455
Au19_1 Au6_3 2.778125 1_545
Au19_1 Au4_1 2.918157 1_555
Au19_1 Au4_5 2.918157 1_555
Au19_1 Au8_1 2.932960 1_555
Au19_1 Au8_5 2.932960 1_555
Au19_1 Au19_5 3.215065 1_455
Au19_1 Au19_5 3.215065 1_555
Au19_2 Au6_0 2.778125 1_555
Au19_2 Au4_6 2.918157 1_555
Au19_2 Au4_2 2.918157 1_555
Au19_2 Au8_2 2.932960 1_555
Au19_2 Au8_6 2.932960 1_555
Au19_2 Au19_6 3.215065 1_455
Au19_2 Au19_6 3.215065 1_555
Au19_3 Au6_1 2.778125 1_555
Au19_3 Au4_7 2.918157 1_555
Au19_3 Au4_3 2.918157 1_555
Au19_3 Au8_7 2.932960 1_555
Au19_3 Au8_3 2.932960 1_555
Au19_3 Au19_7 3.215065 1_555
Au19_3 Au19_7 3.215065 1_455
Au19_4 Au6_6 2.778125 1_545
Au19_4 Au4_4 2.918157 1_555
Au19_4 Au4_0 2.918157 1_655
Au19_4 Au8_0 2.932960 1_655
Au19_4 Au8_4 2.932960 1_555
Au19_5 Au6_7 2.778125 1_545
Au19_5 Au4_5 2.918157 1_555
Au19_5 Au4_1 2.918157 1_655
Au19_5 Au8_5 2.932960 1_555
Au19_5 Au8_1 2.932960 1_655
Au19_6 Au6_4 2.778125 1_555
Au19_6 Au4_2 2.918157 1_655
Au19_6 Au4_6 2.918157 1_555
Au19_6 Au8_2 2.932960 1_655
Au19_6 Au8_6 2.932960 1_555
Au19_7 Au6_5 2.778125 1_555
Au19_7 Au4_3 2.918157 1_655
Au19_7 Au4_7 2.918157 1_555
Au19_7 Au8_7 2.932960 1_555
Au19_7 Au8_3 2.932960 1_655
