# generated using pymatgen
data_Zn49Pt29
_symmetry_space_group_name_H-M   'P 1'
_cell_length_a   5.61193422
_cell_length_b   14.10633922
_cell_length_c   120.25319679
_cell_angle_alpha   93.36247950
_cell_angle_beta   90.00000000
_cell_angle_gamma   90.00000000
_symmetry_Int_Tables_number   1
_chemical_formula_structural   Zn49Pt29
_chemical_formula_sum   'Zn392 Pt232'
_cell_volume   9503.31712807
_cell_formula_units_Z   8
loop_
 _symmetry_equiv_pos_site_id
 _symmetry_equiv_pos_as_xyz
  1  'x, y, z'
loop_
 _atom_site_type_symbol
 _atom_site_label
 _atom_site_symmetry_multiplicity
 _atom_site_fract_x
 _atom_site_fract_y
 _atom_site_fract_z
 _atom_site_occupancy
  Zn  Zn0_0  1  0.00000000  0.35282564  0.06870761  1
  Zn  Zn0_1  1  0.00000000  0.35282564  0.56870761  1
  Zn  Zn0_2  1  0.00000000  0.85282564  0.06870761  1
  Zn  Zn0_3  1  0.00000000  0.85282564  0.56870761  1
  Zn  Zn0_4  1  0.50000000  0.35282564  0.06870761  1
  Zn  Zn0_5  1  0.50000000  0.35282564  0.56870761  1
  Zn  Zn0_6  1  0.50000000  0.85282564  0.06870761  1
  Zn  Zn0_7  1  0.50000000  0.85282564  0.56870761  1
  Zn  Zn1_0  1  0.00000000  0.22755066  0.16311232  1
  Zn  Zn1_1  1  0.00000000  0.22755066  0.66311232  1
  Zn  Zn1_2  1  0.00000000  0.72755066  0.16311232  1
  Zn  Zn1_3  1  0.00000000  0.72755066  0.66311232  1
  Zn  Zn1_4  1  0.50000000  0.22755066  0.16311232  1
  Zn  Zn1_5  1  0.50000000  0.22755066  0.66311232  1
  Zn  Zn1_6  1  0.50000000  0.72755066  0.16311232  1
  Zn  Zn1_7  1  0.50000000  0.72755066  0.66311232  1
  Zn  Zn2_0  1  0.00000000  0.28411803  0.43129239  1
  Zn  Zn2_1  1  0.00000000  0.28411803  0.93129239  1
  Zn  Zn2_2  1  0.00000000  0.78411803  0.43129239  1
  Zn  Zn2_3  1  0.00000000  0.78411803  0.93129239  1
  Zn  Zn2_4  1  0.50000000  0.28411803  0.43129239  1
  Zn  Zn2_5  1  0.50000000  0.28411803  0.93129239  1
  Zn  Zn2_6  1  0.50000000  0.78411803  0.43129239  1
  Zn  Zn2_7  1  0.50000000  0.78411803  0.93129239  1
  Zn  Zn3_0  1  0.00000000  0.13577665  0.12043038  1
  Zn  Zn3_1  1  0.00000000  0.13577666  0.62043037  1
  Zn  Zn3_2  1  0.00000000  0.63577666  0.12043038  1
  Zn  Zn3_3  1  0.00000000  0.63577666  0.62043037  1
  Zn  Zn3_4  1  0.50000000  0.13577665  0.12043038  1
  Zn  Zn3_5  1  0.50000000  0.13577666  0.62043037  1
  Zn  Zn3_6  1  0.50000000  0.63577666  0.12043038  1
  Zn  Zn3_7  1  0.50000000  0.63577666  0.62043037  1
  Zn  Zn4_0  1  0.00000000  0.24199470  0.14004343  1
  Zn  Zn4_1  1  0.00000000  0.24199470  0.64004343  1
  Zn  Zn4_2  1  0.00000000  0.74199470  0.14004343  1
  Zn  Zn4_3  1  0.00000000  0.74199470  0.64004343  1
  Zn  Zn4_4  1  0.50000000  0.24199470  0.14004343  1
  Zn  Zn4_5  1  0.50000000  0.24199470  0.64004343  1
  Zn  Zn4_6  1  0.50000000  0.74199470  0.14004343  1
  Zn  Zn4_7  1  0.50000000  0.74199470  0.64004343  1
  Zn  Zn5_0  1  0.00000000  0.12780849  0.08476404  1
  Zn  Zn5_1  1  0.00000000  0.12780849  0.58476405  1
  Zn  Zn5_2  1  0.00000000  0.62780849  0.08476404  1
  Zn  Zn5_3  1  0.00000000  0.62780849  0.58476404  1
  Zn  Zn5_4  1  0.50000000  0.12780849  0.08476404  1
  Zn  Zn5_5  1  0.50000000  0.12780849  0.58476405  1
  Zn  Zn5_6  1  0.50000000  0.62780849  0.08476404  1
  Zn  Zn5_7  1  0.50000000  0.62780849  0.58476404  1
  Zn  Zn6_0  1  0.00000000  0.33943656  0.03374190  1
  Zn  Zn6_1  1  0.00000000  0.33943656  0.53374190  1
  Zn  Zn6_2  1  0.00000000  0.83943656  0.03374190  1
  Zn  Zn6_3  1  0.00000000  0.83943656  0.53374190  1
  Zn  Zn6_4  1  0.50000000  0.33943656  0.03374190  1
  Zn  Zn6_5  1  0.50000000  0.33943656  0.53374190  1
  Zn  Zn6_6  1  0.50000000  0.83943656  0.03374190  1
  Zn  Zn6_7  1  0.50000000  0.83943656  0.53374190  1
  Zn  Zn7_0  1  0.00000000  0.35620347  0.41096724  1
  Zn  Zn7_1  1  0.00000000  0.35620347  0.91096724  1
  Zn  Zn7_2  1  0.00000000  0.85620347  0.41096724  1
  Zn  Zn7_3  1  0.00000000  0.85620347  0.91096724  1
  Zn  Zn7_4  1  0.50000000  0.35620347  0.41096724  1
  Zn  Zn7_5  1  0.50000000  0.35620347  0.91096724  1
  Zn  Zn7_6  1  0.50000000  0.85620347  0.41096724  1
  Zn  Zn7_7  1  0.50000000  0.85620347  0.91096724  1
  Zn  Zn8_0  1  0.00000000  0.47240320  0.27576916  1
  Zn  Zn8_1  1  0.00000000  0.47240320  0.77576916  1
  Zn  Zn8_2  1  0.00000000  0.97240320  0.27576916  1
  Zn  Zn8_3  1  0.00000000  0.97240320  0.77576916  1
  Zn  Zn8_4  1  0.50000000  0.47240320  0.27576916  1
  Zn  Zn8_5  1  0.50000000  0.47240320  0.77576916  1
  Zn  Zn8_6  1  0.50000000  0.97240320  0.27576916  1
  Zn  Zn8_7  1  0.50000000  0.97240320  0.77576916  1
  Zn  Zn9_0  1  0.00000000  0.24758104  0.32753381  1
  Zn  Zn9_1  1  0.00000000  0.24758104  0.82753381  1
  Zn  Zn9_2  1  0.00000000  0.74758104  0.32753381  1
  Zn  Zn9_3  1  0.00000000  0.74758104  0.82753381  1
  Zn  Zn9_4  1  0.50000000  0.24758104  0.32753381  1
  Zn  Zn9_5  1  0.50000000  0.24758104  0.82753381  1
  Zn  Zn9_6  1  0.50000000  0.74758104  0.32753381  1
  Zn  Zn9_7  1  0.50000000  0.74758104  0.82753381  1
  Zn  Zn10_0  1  0.00000000  0.30569467  0.46625811  1
  Zn  Zn10_1  1  0.00000000  0.30569467  0.96625811  1
  Zn  Zn10_2  1  0.00000000  0.80569467  0.46625811  1
  Zn  Zn10_3  1  0.00000000  0.80569467  0.96625810  1
  Zn  Zn10_4  1  0.50000000  0.30569467  0.46625811  1
  Zn  Zn10_5  1  0.50000000  0.30569467  0.96625811  1
  Zn  Zn10_6  1  0.50000000  0.80569467  0.46625811  1
  Zn  Zn10_7  1  0.50000000  0.80569467  0.96625810  1
  Zn  Zn11_0  1  0.00000000  0.09908828  0.43722901  1
  Zn  Zn11_1  1  0.00000000  0.09908828  0.93722901  1
  Zn  Zn11_2  1  0.00000000  0.59908828  0.43722901  1
  Zn  Zn11_3  1  0.00000000  0.59908828  0.93722901  1
  Zn  Zn11_4  1  0.50000000  0.09908828  0.43722901  1
  Zn  Zn11_5  1  0.50000000  0.09908828  0.93722901  1
  Zn  Zn11_6  1  0.50000000  0.59908828  0.43722901  1
  Zn  Zn11_7  1  0.50000000  0.59908828  0.93722901  1
  Zn  Zn12_0  1  0.00000000  0.44303208  0.11303602  1
  Zn  Zn12_1  1  0.00000000  0.44303208  0.61303602  1
  Zn  Zn12_2  1  0.00000000  0.94303208  0.11303602  1
  Zn  Zn12_3  1  0.00000000  0.94303208  0.61303601  1
  Zn  Zn12_4  1  0.50000000  0.44303208  0.11303602  1
  Zn  Zn12_5  1  0.50000000  0.44303208  0.61303602  1
  Zn  Zn12_6  1  0.50000000  0.94303208  0.11303602  1
  Zn  Zn12_7  1  0.50000000  0.94303208  0.61303601  1
  Zn  Zn13_0  1  0.00000000  0.04304445  0.41523595  1
  Zn  Zn13_1  1  0.00000000  0.04304445  0.91523595  1
  Zn  Zn13_2  1  0.00000000  0.54304445  0.41523595  1
  Zn  Zn13_3  1  0.00000000  0.54304445  0.91523595  1
  Zn  Zn13_4  1  0.50000000  0.04304445  0.41523595  1
  Zn  Zn13_5  1  0.50000000  0.04304445  0.91523595  1
  Zn  Zn13_6  1  0.50000000  0.54304445  0.41523595  1
  Zn  Zn13_7  1  0.50000000  0.54304445  0.91523595  1
  Zn  Zn14_0  1  0.00000000  0.46578205  0.05147604  1
  Zn  Zn14_1  1  0.00000000  0.46578205  0.55147605  1
  Zn  Zn14_2  1  0.00000000  0.96578205  0.05147605  1
  Zn  Zn14_3  1  0.00000000  0.96578205  0.55147605  1
  Zn  Zn14_4  1  0.50000000  0.46578205  0.05147604  1
  Zn  Zn14_5  1  0.50000000  0.46578205  0.55147605  1
  Zn  Zn14_6  1  0.50000000  0.96578205  0.05147605  1
  Zn  Zn14_7  1  0.50000000  0.96578205  0.55147605  1
  Zn  Zn15_0  1  0.00000000  0.28863617  0.28760065  1
  Zn  Zn15_1  1  0.00000000  0.28863617  0.78760065  1
  Zn  Zn15_2  1  0.00000000  0.78863617  0.28760065  1
  Zn  Zn15_3  1  0.00000000  0.78863617  0.78760065  1
  Zn  Zn15_4  1  0.50000000  0.28863617  0.28760065  1
  Zn  Zn15_5  1  0.50000000  0.28863617  0.78760065  1
  Zn  Zn15_6  1  0.50000000  0.78863617  0.28760065  1
  Zn  Zn15_7  1  0.50000000  0.78863617  0.78760065  1
  Zn  Zn16_0  1  0.00000000  0.31118952  0.20697663  1
  Zn  Zn16_1  1  0.00000000  0.31118952  0.70697663  1
  Zn  Zn16_2  1  0.00000000  0.81118952  0.20697663  1
  Zn  Zn16_3  1  0.00000000  0.81118952  0.70697663  1
  Zn  Zn16_4  1  0.50000000  0.31118952  0.20697663  1
  Zn  Zn16_5  1  0.50000000  0.31118952  0.70697663  1
  Zn  Zn16_6  1  0.50000000  0.81118952  0.20697663  1
  Zn  Zn16_7  1  0.50000000  0.81118952  0.70697663  1
  Zn  Zn17_0  1  0.00000000  0.16185927  0.06277099  1
  Zn  Zn17_1  1  0.00000000  0.16185927  0.56277099  1
  Zn  Zn17_2  1  0.00000000  0.66185927  0.06277099  1
  Zn  Zn17_3  1  0.00000000  0.66185927  0.56277099  1
  Zn  Zn17_4  1  0.50000000  0.16185927  0.06277099  1
  Zn  Zn17_5  1  0.50000000  0.16185927  0.56277099  1
  Zn  Zn17_6  1  0.50000000  0.66185927  0.06277099  1
  Zn  Zn17_7  1  0.50000000  0.66185927  0.56277099  1
  Zn  Zn18_0  1  0.00000000  0.18855878  0.00000000  1
  Zn  Zn18_1  1  0.00000000  0.18855878  0.50000000  1
  Zn  Zn18_2  1  0.00000000  0.68855878  0.00000000  1
  Zn  Zn18_3  1  0.00000000  0.68855878  0.50000000  1
  Zn  Zn18_4  1  0.50000000  0.18855878  0.00000000  1
  Zn  Zn18_5  1  0.50000000  0.18855878  0.50000000  1
  Zn  Zn18_6  1  0.50000000  0.68855878  0.00000000  1
  Zn  Zn18_7  1  0.50000000  0.68855878  0.50000000  1
  Zn  Zn19_0  1  0.00000000  0.19663404  0.22423084  1
  Zn  Zn19_1  1  0.00000000  0.19663404  0.72423084  1
  Zn  Zn19_2  1  0.00000000  0.69663404  0.22423084  1
  Zn  Zn19_3  1  0.00000000  0.69663404  0.72423084  1
  Zn  Zn19_4  1  0.50000000  0.19663404  0.22423084  1
  Zn  Zn19_5  1  0.50000000  0.19663404  0.72423084  1
  Zn  Zn19_6  1  0.50000000  0.69663404  0.22423084  1
  Zn  Zn19_7  1  0.50000000  0.69663404  0.72423084  1
  Zn  Zn20_0  1  0.00000000  0.03370169  0.15516468  1
  Zn  Zn20_1  1  0.00000000  0.03370169  0.65516468  1
  Zn  Zn20_2  1  0.00000000  0.53370169  0.15516468  1
  Zn  Zn20_3  1  0.00000000  0.53370169  0.65516467  1
  Zn  Zn20_4  1  0.50000000  0.03370169  0.15516468  1
  Zn  Zn20_5  1  0.50000000  0.03370169  0.65516468  1
  Zn  Zn20_6  1  0.50000000  0.53370169  0.15516468  1
  Zn  Zn20_7  1  0.50000000  0.53370169  0.65516467  1
  Zn  Zn21_0  1  0.00000000  0.01534628  0.37956963  1
  Zn  Zn21_1  1  0.00000000  0.01534628  0.87956963  1
  Zn  Zn21_2  1  0.00000000  0.51534628  0.37956963  1
  Zn  Zn21_3  1  0.00000000  0.51534628  0.87956963  1
  Zn  Zn21_4  1  0.50000000  0.01534628  0.37956963  1
  Zn  Zn21_5  1  0.50000000  0.01534628  0.87956963  1
  Zn  Zn21_6  1  0.50000000  0.51534628  0.37956963  1
  Zn  Zn21_7  1  0.50000000  0.51534628  0.87956963  1
  Zn  Zn22_0  1  0.00000000  0.04000868  0.19071945  1
  Zn  Zn22_1  1  0.00000000  0.04000868  0.69071945  1
  Zn  Zn22_2  1  0.00000000  0.54000868  0.19071945  1
  Zn  Zn22_3  1  0.00000000  0.54000868  0.69071945  1
  Zn  Zn22_4  1  0.50000000  0.04000868  0.19071945  1
  Zn  Zn22_5  1  0.50000000  0.04000868  0.69071945  1
  Zn  Zn22_6  1  0.50000000  0.54000868  0.19071945  1
  Zn  Zn22_7  1  0.50000000  0.54000868  0.69071945  1
  Zn  Zn23_0  1  0.00000000  0.10195127  0.35995657  1
  Zn  Zn23_1  1  0.00000000  0.10195127  0.85995656  1
  Zn  Zn23_2  1  0.00000000  0.60195127  0.35995656  1
  Zn  Zn23_3  1  0.00000000  0.60195127  0.85995656  1
  Zn  Zn23_4  1  0.50000000  0.10195127  0.35995657  1
  Zn  Zn23_5  1  0.50000000  0.10195127  0.85995656  1
  Zn  Zn23_6  1  0.50000000  0.60195127  0.35995656  1
  Zn  Zn23_7  1  0.50000000  0.60195127  0.85995656  1
  Zn  Zn24_0  1  0.00000000  0.06443833  0.33688768  1
  Zn  Zn24_1  1  0.00000000  0.06443834  0.83688768  1
  Zn  Zn24_2  1  0.00000000  0.56443834  0.33688768  1
  Zn  Zn24_3  1  0.00000000  0.56443834  0.83688768  1
  Zn  Zn24_4  1  0.50000000  0.06443833  0.33688768  1
  Zn  Zn24_5  1  0.50000000  0.06443834  0.83688768  1
  Zn  Zn24_6  1  0.50000000  0.56443834  0.33688768  1
  Zn  Zn24_7  1  0.50000000  0.56443834  0.83688768  1
  Zn  Zn25_0  1  0.00000000  0.41430600  0.44852396  1
  Zn  Zn25_1  1  0.00000000  0.41430600  0.94852396  1
  Zn  Zn25_2  1  0.00000000  0.91430600  0.44852396  1
  Zn  Zn25_3  1  0.00000000  0.91430600  0.94852395  1
  Zn  Zn25_4  1  0.50000000  0.41430600  0.44852396  1
  Zn  Zn25_5  1  0.50000000  0.41430600  0.94852396  1
  Zn  Zn25_6  1  0.50000000  0.91430600  0.44852396  1
  Zn  Zn25_7  1  0.50000000  0.91430600  0.94852395  1
  Zn  Zn26_0  1  0.00000000  0.42004723  0.17246619  1
  Zn  Zn26_1  1  0.00000000  0.42004723  0.67246619  1
  Zn  Zn26_2  1  0.00000000  0.92004723  0.17246619  1
  Zn  Zn26_3  1  0.00000000  0.92004723  0.67246619  1
  Zn  Zn26_4  1  0.50000000  0.42004723  0.17246619  1
  Zn  Zn26_5  1  0.50000000  0.42004723  0.67246619  1
  Zn  Zn26_6  1  0.50000000  0.92004723  0.17246619  1
  Zn  Zn26_7  1  0.50000000  0.92004723  0.67246619  1
  Zn  Zn27_0  1  0.00000000  0.10421289  0.29302337  1
  Zn  Zn27_1  1  0.00000000  0.10421289  0.79302337  1
  Zn  Zn27_2  1  0.00000000  0.60421289  0.29302337  1
  Zn  Zn27_3  1  0.00000000  0.60421289  0.79302337  1
  Zn  Zn27_4  1  0.50000000  0.10421289  0.29302337  1
  Zn  Zn27_5  1  0.50000000  0.10421289  0.79302337  1
  Zn  Zn27_6  1  0.50000000  0.60421289  0.29302337  1
  Zn  Zn27_7  1  0.50000000  0.60421289  0.79302337  1
  Zn  Zn28_0  1  0.00000000  0.27275981  0.26287262  1
  Zn  Zn28_1  1  0.00000000  0.27275981  0.76287262  1
  Zn  Zn28_2  1  0.00000000  0.77275981  0.26287262  1
  Zn  Zn28_3  1  0.00000000  0.77275981  0.76287262  1
  Zn  Zn28_4  1  0.50000000  0.27275981  0.26287262  1
  Zn  Zn28_5  1  0.50000000  0.27275981  0.76287262  1
  Zn  Zn28_6  1  0.50000000  0.77275981  0.26287262  1
  Zn  Zn28_7  1  0.50000000  0.77275981  0.76287262  1
  Zn  Zn29_0  1  0.00000000  0.34928923  0.30928056  1
  Zn  Zn29_1  1  0.00000000  0.34928923  0.80928055  1
  Zn  Zn29_2  1  0.00000000  0.84928923  0.30928055  1
  Zn  Zn29_3  1  0.00000000  0.84928923  0.80928056  1
  Zn  Zn29_4  1  0.50000000  0.34928923  0.30928056  1
  Zn  Zn29_5  1  0.50000000  0.34928923  0.80928055  1
  Zn  Zn29_6  1  0.50000000  0.84928923  0.30928055  1
  Zn  Zn29_7  1  0.50000000  0.84928923  0.80928056  1
  Zn  Zn30_0  1  0.00000000  0.15576759  0.03820581  1
  Zn  Zn30_1  1  0.00000000  0.15576759  0.53820580  1
  Zn  Zn30_2  1  0.00000000  0.65576759  0.03820581  1
  Zn  Zn30_3  1  0.00000000  0.65576759  0.53820581  1
  Zn  Zn30_4  1  0.50000000  0.15576759  0.03820581  1
  Zn  Zn30_5  1  0.50000000  0.15576759  0.53820580  1
  Zn  Zn30_6  1  0.50000000  0.65576759  0.03820581  1
  Zn  Zn30_7  1  0.50000000  0.65576759  0.53820581  1
  Zn  Zn31_0  1  0.00000000  0.00103552  0.21239935  1
  Zn  Zn31_1  1  0.00000000  0.00103552  0.71239935  1
  Zn  Zn31_2  1  0.00000000  0.50103552  0.21239935  1
  Zn  Zn31_3  1  0.00000000  0.50103552  0.71239935  1
  Zn  Zn31_4  1  0.50000000  0.00103552  0.21239935  1
  Zn  Zn31_5  1  0.50000000  0.00103552  0.71239935  1
  Zn  Zn31_6  1  0.50000000  0.50103552  0.21239935  1
  Zn  Zn31_7  1  0.50000000  0.50103552  0.71239935  1
  Zn  Zn32_0  1  0.00000000  0.42408256  0.13585055  1
  Zn  Zn32_1  1  0.00000000  0.42408256  0.63585055  1
  Zn  Zn32_2  1  0.00000000  0.92408256  0.13585055  1
  Zn  Zn32_3  1  0.00000000  0.92408256  0.63585055  1
  Zn  Zn32_4  1  0.50000000  0.42408256  0.13585055  1
  Zn  Zn32_5  1  0.50000000  0.42408256  0.63585055  1
  Zn  Zn32_6  1  0.50000000  0.92408256  0.13585055  1
  Zn  Zn32_7  1  0.50000000  0.92408256  0.63585055  1
  Zn  Zn33_0  1  0.00000000  0.22252934  0.18669043  1
  Zn  Zn33_1  1  0.00000000  0.22252934  0.68669043  1
  Zn  Zn33_2  1  0.00000000  0.72252934  0.18669043  1
  Zn  Zn33_3  1  0.00000000  0.72252934  0.68669043  1
  Zn  Zn33_4  1  0.50000000  0.22252934  0.18669043  1
  Zn  Zn33_5  1  0.50000000  0.22252934  0.68669043  1
  Zn  Zn33_6  1  0.50000000  0.72252934  0.18669043  1
  Zn  Zn33_7  1  0.50000000  0.72252934  0.68669043  1
  Zn  Zn34_0  1  0.00000000  0.28823201  0.36414945  1
  Zn  Zn34_1  1  0.00000000  0.28823201  0.86414945  1
  Zn  Zn34_2  1  0.00000000  0.78823201  0.36414945  1
  Zn  Zn34_3  1  0.00000000  0.78823201  0.86414945  1
  Zn  Zn34_4  1  0.50000000  0.28823201  0.36414945  1
  Zn  Zn34_5  1  0.50000000  0.28823201  0.86414945  1
  Zn  Zn34_6  1  0.50000000  0.78823201  0.36414945  1
  Zn  Zn34_7  1  0.50000000  0.78823201  0.86414945  1
  Zn  Zn35_0  1  0.00000000  0.00988718  0.23712738  1
  Zn  Zn35_1  1  0.00000000  0.00988718  0.73712738  1
  Zn  Zn35_2  1  0.00000000  0.50988718  0.23712738  1
  Zn  Zn35_3  1  0.00000000  0.50988718  0.73712738  1
  Zn  Zn35_4  1  0.50000000  0.00988718  0.23712738  1
  Zn  Zn35_5  1  0.50000000  0.00988718  0.73712738  1
  Zn  Zn35_6  1  0.50000000  0.50988718  0.23712738  1
  Zn  Zn35_7  1  0.50000000  0.50988718  0.73712738  1
  Zn  Zn36_0  1  0.00000000  0.05860974  0.48269224  1
  Zn  Zn36_1  1  0.00000000  0.05860974  0.98269224  1
  Zn  Zn36_2  1  0.00000000  0.55860974  0.48269224  1
  Zn  Zn36_3  1  0.00000000  0.55860974  0.98269224  1
  Zn  Zn36_4  1  0.50000000  0.05860974  0.48269224  1
  Zn  Zn36_5  1  0.50000000  0.05860974  0.98269224  1
  Zn  Zn36_6  1  0.50000000  0.55860974  0.48269224  1
  Zn  Zn36_7  1  0.50000000  0.55860974  0.98269224  1
  Zn  Zn37_0  1  0.00000000  0.32999606  0.38696399  1
  Zn  Zn37_1  1  0.00000000  0.32999606  0.88696399  1
  Zn  Zn37_2  1  0.00000000  0.82999606  0.38696399  1
  Zn  Zn37_3  1  0.00000000  0.82999606  0.88696398  1
  Zn  Zn37_4  1  0.50000000  0.32999606  0.38696399  1
  Zn  Zn37_5  1  0.50000000  0.32999606  0.88696399  1
  Zn  Zn37_6  1  0.50000000  0.82999606  0.38696399  1
  Zn  Zn37_7  1  0.50000000  0.82999606  0.88696398  1
  Zn  Zn38_0  1  0.00000000  0.37853701  0.34483533  1
  Zn  Zn38_1  1  0.00000000  0.37853701  0.84483533  1
  Zn  Zn38_2  1  0.00000000  0.87853701  0.34483533  1
  Zn  Zn38_3  1  0.00000000  0.87853701  0.84483533  1
  Zn  Zn38_4  1  0.50000000  0.37853701  0.34483533  1
  Zn  Zn38_5  1  0.50000000  0.37853701  0.84483533  1
  Zn  Zn38_6  1  0.50000000  0.87853701  0.34483533  1
  Zn  Zn38_7  1  0.50000000  0.87853701  0.84483533  1
  Zn  Zn39_0  1  0.00000000  0.14491819  0.39673733  1
  Zn  Zn39_1  1  0.00000000  0.14491819  0.89673733  1
  Zn  Zn39_2  1  0.00000000  0.64491820  0.39673733  1
  Zn  Zn39_3  1  0.00000000  0.64491820  0.89673733  1
  Zn  Zn39_4  1  0.50000000  0.14491819  0.39673733  1
  Zn  Zn39_5  1  0.50000000  0.14491819  0.89673733  1
  Zn  Zn39_6  1  0.50000000  0.64491820  0.39673733  1
  Zn  Zn39_7  1  0.50000000  0.64491820  0.89673733  1
  Zn  Zn40_0  1  0.00000000  0.44523622  0.08903276  1
  Zn  Zn40_1  1  0.00000000  0.44523623  0.58903276  1
  Zn  Zn40_2  1  0.00000000  0.94523623  0.08903276  1
  Zn  Zn40_3  1  0.00000000  0.94523623  0.58903276  1
  Zn  Zn40_4  1  0.50000000  0.44523622  0.08903276  1
  Zn  Zn40_5  1  0.50000000  0.44523623  0.58903276  1
  Zn  Zn40_6  1  0.50000000  0.94523623  0.08903276  1
  Zn  Zn40_7  1  0.50000000  0.94523623  0.58903276  1
  Zn  Zn41_0  1  0.00000000  0.32569004  0.24171465  1
  Zn  Zn41_1  1  0.00000000  0.32569003  0.74171465  1
  Zn  Zn41_2  1  0.00000000  0.82569004  0.24171465  1
  Zn  Zn41_3  1  0.00000000  0.82569004  0.74171465  1
  Zn  Zn41_4  1  0.50000000  0.32569004  0.24171465  1
  Zn  Zn41_5  1  0.50000000  0.32569003  0.74171465  1
  Zn  Zn41_6  1  0.50000000  0.82569004  0.24171465  1
  Zn  Zn41_7  1  0.50000000  0.82569004  0.74171465  1
  Zn  Zn42_0  1  0.00000000  0.37392607  0.48761578  1
  Zn  Zn42_1  1  0.00000000  0.37392607  0.98761578  1
  Zn  Zn42_2  1  0.00000000  0.87392607  0.48761577  1
  Zn  Zn42_3  1  0.00000000  0.87392607  0.98761577  1
  Zn  Zn42_4  1  0.50000000  0.37392607  0.48761578  1
  Zn  Zn42_5  1  0.50000000  0.37392607  0.98761578  1
  Zn  Zn42_6  1  0.50000000  0.87392607  0.48761577  1
  Zn  Zn42_7  1  0.50000000  0.87392607  0.98761577  1
  Zn  Zn43_0  1  0.00000000  0.03583891  0.31330957  1
  Zn  Zn43_1  1  0.00000000  0.03583891  0.81330957  1
  Zn  Zn43_2  1  0.00000000  0.53583891  0.31330957  1
  Zn  Zn43_3  1  0.00000000  0.53583891  0.81330957  1
  Zn  Zn43_4  1  0.50000000  0.03583891  0.31330957  1
  Zn  Zn43_5  1  0.50000000  0.03583891  0.81330957  1
  Zn  Zn43_6  1  0.50000000  0.53583891  0.31330957  1
  Zn  Zn43_7  1  0.50000000  0.53583891  0.81330957  1
  Zn  Zn44_0  1  0.00000000  0.07591750  0.01730776  1
  Zn  Zn44_1  1  0.00000000  0.07591750  0.51730776  1
  Zn  Zn44_2  1  0.00000000  0.57591750  0.01730776  1
  Zn  Zn44_3  1  0.00000000  0.57591750  0.51730776  1
  Zn  Zn44_4  1  0.50000000  0.07591750  0.01730776  1
  Zn  Zn44_5  1  0.50000000  0.07591750  0.51730776  1
  Zn  Zn44_6  1  0.50000000  0.57591750  0.01730776  1
  Zn  Zn44_7  1  0.50000000  0.57591750  0.51730776  1
  Zn  Zn45_0  1  0.00000000  0.24818087  0.10326267  1
  Zn  Zn45_1  1  0.00000000  0.24818087  0.60326267  1
  Zn  Zn45_2  1  0.00000000  0.74818087  0.10326267  1
  Zn  Zn45_3  1  0.00000000  0.74818087  0.60326267  1
  Zn  Zn45_4  1  0.50000000  0.24818087  0.10326267  1
  Zn  Zn45_5  1  0.50000000  0.24818087  0.60326267  1
  Zn  Zn45_6  1  0.50000000  0.74818087  0.10326267  1
  Zn  Zn45_7  1  0.50000000  0.74818087  0.60326267  1
  Zn  Zn46_0  1  0.00000000  0.38631029  0.01238423  1
  Zn  Zn46_1  1  0.00000000  0.38631029  0.51238423  1
  Zn  Zn46_2  1  0.00000000  0.88631029  0.01238423  1
  Zn  Zn46_3  1  0.00000000  0.88631029  0.51238422  1
  Zn  Zn46_4  1  0.50000000  0.38631029  0.01238423  1
  Zn  Zn46_5  1  0.50000000  0.38631029  0.51238423  1
  Zn  Zn46_6  1  0.50000000  0.88631029  0.01238423  1
  Zn  Zn46_7  1  0.50000000  0.88631029  0.51238422  1
  Zn  Zn47_0  1  0.00000000  0.11756179  0.46179420  1
  Zn  Zn47_1  1  0.00000000  0.11756179  0.96179419  1
  Zn  Zn47_2  1  0.00000000  0.61756179  0.46179419  1
  Zn  Zn47_3  1  0.00000000  0.61756179  0.96179419  1
  Zn  Zn47_4  1  0.50000000  0.11756179  0.46179420  1
  Zn  Zn47_5  1  0.50000000  0.11756179  0.96179419  1
  Zn  Zn47_6  1  0.50000000  0.61756179  0.46179419  1
  Zn  Zn47_7  1  0.50000000  0.61756179  0.96179419  1
  Zn  Zn48_0  1  0.00000000  0.08397539  0.25828535  1
  Zn  Zn48_1  1  0.00000000  0.08397539  0.75828535  1
  Zn  Zn48_2  1  0.00000000  0.58397539  0.25828535  1
  Zn  Zn48_3  1  0.00000000  0.58397539  0.75828535  1
  Zn  Zn48_4  1  0.50000000  0.08397539  0.25828535  1
  Zn  Zn48_5  1  0.50000000  0.08397539  0.75828535  1
  Zn  Zn48_6  1  0.50000000  0.58397539  0.25828535  1
  Zn  Zn48_7  1  0.50000000  0.58397539  0.75828535  1
  Pt  Pt0_0  1  0.25000000  0.44545809  0.36228943  1
  Pt  Pt0_1  1  0.25000000  0.44545809  0.86228943  1
  Pt  Pt0_2  1  0.25000000  0.94545809  0.36228942  1
  Pt  Pt0_3  1  0.25000000  0.94545809  0.86228942  1
  Pt  Pt0_4  1  0.75000000  0.44545809  0.36228943  1
  Pt  Pt0_5  1  0.75000000  0.44545809  0.86228943  1
  Pt  Pt0_6  1  0.75000000  0.94545809  0.36228942  1
  Pt  Pt0_7  1  0.75000000  0.94545809  0.86228942  1
  Pt  Pt1_0  1  0.25000000  0.44133306  0.29425322  1
  Pt  Pt1_1  1  0.25000000  0.44133306  0.79425322  1
  Pt  Pt1_2  1  0.25000000  0.94133306  0.29425322  1
  Pt  Pt1_3  1  0.25000000  0.94133306  0.79425322  1
  Pt  Pt1_4  1  0.75000000  0.44133306  0.29425322  1
  Pt  Pt1_5  1  0.75000000  0.44133306  0.79425322  1
  Pt  Pt1_6  1  0.75000000  0.94133306  0.29425322  1
  Pt  Pt1_7  1  0.75000000  0.94133306  0.79425322  1
  Pt  Pt2_0  1  0.25000000  0.46618664  0.39746065  1
  Pt  Pt2_1  1  0.25000000  0.46618664  0.89746065  1
  Pt  Pt2_2  1  0.25000000  0.96618664  0.39746065  1
  Pt  Pt2_3  1  0.25000000  0.96618664  0.89746065  1
  Pt  Pt2_4  1  0.75000000  0.46618664  0.39746065  1
  Pt  Pt2_5  1  0.75000000  0.46618664  0.89746065  1
  Pt  Pt2_6  1  0.75000000  0.96618664  0.39746065  1
  Pt  Pt2_7  1  0.75000000  0.96618664  0.89746065  1
  Pt  Pt3_0  1  0.25000000  0.16559092  0.24260369  1
  Pt  Pt3_1  1  0.25000000  0.16559092  0.74260369  1
  Pt  Pt3_2  1  0.25000000  0.66559092  0.24260369  1
  Pt  Pt3_3  1  0.25000000  0.66559092  0.74260368  1
  Pt  Pt3_4  1  0.75000000  0.16559092  0.24260369  1
  Pt  Pt3_5  1  0.75000000  0.16559092  0.74260369  1
  Pt  Pt3_6  1  0.75000000  0.66559092  0.24260369  1
  Pt  Pt3_7  1  0.75000000  0.66559092  0.74260368  1
  Pt  Pt4_0  1  0.25000000  0.21948685  0.48161365  1
  Pt  Pt4_1  1  0.25000000  0.21948685  0.98161365  1
  Pt  Pt4_2  1  0.25000000  0.71948685  0.48161365  1
  Pt  Pt4_3  1  0.25000000  0.71948685  0.98161365  1
  Pt  Pt4_4  1  0.75000000  0.21948685  0.48161365  1
  Pt  Pt4_5  1  0.75000000  0.21948685  0.98161365  1
  Pt  Pt4_6  1  0.75000000  0.71948685  0.48161365  1
  Pt  Pt4_7  1  0.75000000  0.71948685  0.98161365  1
  Pt  Pt5_0  1  0.25000000  0.46585621  0.46675777  1
  Pt  Pt5_1  1  0.25000000  0.46585621  0.96675777  1
  Pt  Pt5_2  1  0.25000000  0.96585621  0.46675777  1
  Pt  Pt5_3  1  0.25000000  0.96585621  0.96675777  1
  Pt  Pt5_4  1  0.75000000  0.46585621  0.46675777  1
  Pt  Pt5_5  1  0.75000000  0.46585621  0.96675777  1
  Pt  Pt5_6  1  0.75000000  0.96585621  0.46675777  1
  Pt  Pt5_7  1  0.75000000  0.96585621  0.96675777  1
  Pt  Pt6_0  1  0.25000000  0.08316867  0.13771058  1
  Pt  Pt6_1  1  0.25000000  0.08316867  0.63771058  1
  Pt  Pt6_2  1  0.25000000  0.58316867  0.13771058  1
  Pt  Pt6_3  1  0.25000000  0.58316867  0.63771058  1
  Pt  Pt6_4  1  0.75000000  0.08316867  0.13771058  1
  Pt  Pt6_5  1  0.75000000  0.08316867  0.63771058  1
  Pt  Pt6_6  1  0.75000000  0.58316867  0.13771058  1
  Pt  Pt6_7  1  0.75000000  0.58316867  0.63771058  1
  Pt  Pt7_0  1  0.25000000  0.09904465  0.17306247  1
  Pt  Pt7_1  1  0.25000000  0.09904465  0.67306247  1
  Pt  Pt7_2  1  0.25000000  0.59904465  0.17306247  1
  Pt  Pt7_3  1  0.25000000  0.59904465  0.67306247  1
  Pt  Pt7_4  1  0.75000000  0.09904465  0.17306247  1
  Pt  Pt7_5  1  0.75000000  0.09904465  0.67306247  1
  Pt  Pt7_6  1  0.75000000  0.59904465  0.17306247  1
  Pt  Pt7_7  1  0.75000000  0.59904465  0.67306247  1
  Pt  Pt8_0  1  0.25000000  0.18473211  0.37840342  1
  Pt  Pt8_1  1  0.25000000  0.18473211  0.87840342  1
  Pt  Pt8_2  1  0.25000000  0.68473211  0.37840341  1
  Pt  Pt8_3  1  0.25000000  0.68473211  0.87840341  1
  Pt  Pt8_4  1  0.75000000  0.18473211  0.37840342  1
  Pt  Pt8_5  1  0.75000000  0.18473211  0.87840342  1
  Pt  Pt8_6  1  0.75000000  0.68473211  0.37840341  1
  Pt  Pt8_7  1  0.75000000  0.68473211  0.87840341  1
  Pt  Pt9_0  1  0.25000000  0.20753625  0.34586956  1
  Pt  Pt9_1  1  0.25000000  0.20753625  0.84586956  1
  Pt  Pt9_2  1  0.25000000  0.70753625  0.34586956  1
  Pt  Pt9_3  1  0.25000000  0.70753625  0.84586956  1
  Pt  Pt9_4  1  0.75000000  0.20753625  0.34586956  1
  Pt  Pt9_5  1  0.75000000  0.20753625  0.84586956  1
  Pt  Pt9_6  1  0.75000000  0.70753625  0.34586956  1
  Pt  Pt9_7  1  0.75000000  0.70753625  0.84586956  1
  Pt  Pt10_0  1  0.25000000  0.06872599  0.10253935  1
  Pt  Pt10_1  1  0.25000000  0.06872599  0.60253935  1
  Pt  Pt10_2  1  0.25000000  0.56872599  0.10253935  1
  Pt  Pt10_3  1  0.25000000  0.56872599  0.60253935  1
  Pt  Pt10_4  1  0.75000000  0.06872599  0.10253935  1
  Pt  Pt10_5  1  0.75000000  0.06872599  0.60253935  1
  Pt  Pt10_6  1  0.75000000  0.56872599  0.10253935  1
  Pt  Pt10_7  1  0.75000000  0.56872599  0.60253935  1
  Pt  Pt11_0  1  0.25000000  0.23787320  0.01838635  1
  Pt  Pt11_1  1  0.25000000  0.23787320  0.51838635  1
  Pt  Pt11_2  1  0.25000000  0.73787320  0.01838635  1
  Pt  Pt11_3  1  0.25000000  0.73787320  0.51838635  1
  Pt  Pt11_4  1  0.75000000  0.23787320  0.01838635  1
  Pt  Pt11_5  1  0.75000000  0.23787320  0.51838635  1
  Pt  Pt11_6  1  0.75000000  0.73787320  0.01838635  1
  Pt  Pt11_7  1  0.75000000  0.73787320  0.51838635  1
  Pt  Pt12_0  1  0.25000000  0.00082788  0.00000000  1
  Pt  Pt12_1  1  0.25000000  0.00082788  0.50000000  1
  Pt  Pt12_2  1  0.25000000  0.50082788  0.00000000  1
  Pt  Pt12_3  1  0.25000000  0.50082788  0.50000000  1
  Pt  Pt12_4  1  0.75000000  0.00082788  0.00000000  1
  Pt  Pt12_5  1  0.75000000  0.00082788  0.50000000  1
  Pt  Pt12_6  1  0.75000000  0.50082788  0.00000000  1
  Pt  Pt12_7  1  0.75000000  0.50082788  0.50000000  1
  Pt  Pt13_0  1  0.25000000  0.30632870  0.12159659  1
  Pt  Pt13_1  1  0.25000000  0.30632870  0.62159659  1
  Pt  Pt13_2  1  0.25000000  0.80632870  0.12159659  1
  Pt  Pt13_3  1  0.25000000  0.80632870  0.62159659  1
  Pt  Pt13_4  1  0.75000000  0.30632870  0.12159659  1
  Pt  Pt13_5  1  0.75000000  0.30632870  0.62159659  1
  Pt  Pt13_6  1  0.75000000  0.80632870  0.12159659  1
  Pt  Pt13_7  1  0.75000000  0.80632870  0.62159659  1
  Pt  Pt14_0  1  0.25000000  0.36166668  0.15413044  1
  Pt  Pt14_1  1  0.25000000  0.36166668  0.65413044  1
  Pt  Pt14_2  1  0.25000000  0.86166669  0.15413044  1
  Pt  Pt14_3  1  0.25000000  0.86166669  0.65413044  1
  Pt  Pt14_4  1  0.75000000  0.36166668  0.15413044  1
  Pt  Pt14_5  1  0.75000000  0.36166668  0.65413044  1
  Pt  Pt14_6  1  0.75000000  0.86166669  0.15413044  1
  Pt  Pt14_7  1  0.75000000  0.86166669  0.65413044  1
  Pt  Pt15_0  1  0.25000000  0.15976997  0.27562651  1
  Pt  Pt15_1  1  0.25000000  0.15976997  0.77562651  1
  Pt  Pt15_2  1  0.25000000  0.65976997  0.27562651  1
  Pt  Pt15_3  1  0.25000000  0.65976997  0.77562651  1
  Pt  Pt15_4  1  0.75000000  0.15976997  0.27562651  1
  Pt  Pt15_5  1  0.75000000  0.15976997  0.77562651  1
  Pt  Pt15_6  1  0.75000000  0.65976997  0.27562651  1
  Pt  Pt15_7  1  0.75000000  0.65976997  0.77562651  1
  Pt  Pt16_0  1  0.25000000  0.38414346  0.22437349  1
  Pt  Pt16_1  1  0.25000000  0.38414346  0.72437349  1
  Pt  Pt16_2  1  0.25000000  0.88414346  0.22437349  1
  Pt  Pt16_3  1  0.25000000  0.88414346  0.72437349  1
  Pt  Pt16_4  1  0.75000000  0.38414346  0.22437349  1
  Pt  Pt16_5  1  0.75000000  0.38414346  0.72437349  1
  Pt  Pt16_6  1  0.75000000  0.88414346  0.22437349  1
  Pt  Pt16_7  1  0.75000000  0.88414346  0.72437349  1
  Pt  Pt17_0  1  0.25000000  0.42298723  0.25739631  1
  Pt  Pt17_1  1  0.25000000  0.42298723  0.75739632  1
  Pt  Pt17_2  1  0.25000000  0.92298723  0.25739631  1
  Pt  Pt17_3  1  0.25000000  0.92298723  0.75739631  1
  Pt  Pt17_4  1  0.75000000  0.42298723  0.25739631  1
  Pt  Pt17_5  1  0.75000000  0.42298723  0.75739632  1
  Pt  Pt17_6  1  0.75000000  0.92298723  0.25739631  1
  Pt  Pt17_7  1  0.75000000  0.92298723  0.75739631  1
  Pt  Pt18_0  1  0.25000000  0.20175225  0.41468465  1
  Pt  Pt18_1  1  0.25000000  0.20175225  0.91468465  1
  Pt  Pt18_2  1  0.25000000  0.70175225  0.41468465  1
  Pt  Pt18_3  1  0.25000000  0.70175225  0.91468465  1
  Pt  Pt18_4  1  0.75000000  0.20175225  0.41468465  1
  Pt  Pt18_5  1  0.75000000  0.20175225  0.91468465  1
  Pt  Pt18_6  1  0.75000000  0.70175225  0.41468465  1
  Pt  Pt18_7  1  0.75000000  0.70175225  0.91468465  1
  Pt  Pt19_0  1  0.25000000  0.28706760  0.08531535  1
  Pt  Pt19_1  1  0.25000000  0.28706760  0.58531535  1
  Pt  Pt19_2  1  0.25000000  0.78706760  0.08531535  1
  Pt  Pt19_3  1  0.25000000  0.78706760  0.58531535  1
  Pt  Pt19_4  1  0.75000000  0.28706760  0.08531535  1
  Pt  Pt19_5  1  0.75000000  0.28706760  0.58531535  1
  Pt  Pt19_6  1  0.75000000  0.78706760  0.08531535  1
  Pt  Pt19_7  1  0.75000000  0.78706760  0.58531535  1
  Pt  Pt20_0  1  0.25000000  0.44819904  0.43008651  1
  Pt  Pt20_1  1  0.25000000  0.44819904  0.93008651  1
  Pt  Pt20_2  1  0.25000000  0.94819904  0.43008651  1
  Pt  Pt20_3  1  0.25000000  0.94819904  0.93008651  1
  Pt  Pt20_4  1  0.75000000  0.44819904  0.43008651  1
  Pt  Pt20_5  1  0.75000000  0.44819904  0.93008651  1
  Pt  Pt20_6  1  0.75000000  0.94819904  0.43008651  1
  Pt  Pt20_7  1  0.75000000  0.94819904  0.93008651  1
  Pt  Pt21_0  1  0.25000000  0.22978137  0.44882388  1
  Pt  Pt21_1  1  0.25000000  0.22978137  0.94882388  1
  Pt  Pt21_2  1  0.25000000  0.72978137  0.44882388  1
  Pt  Pt21_3  1  0.25000000  0.72978137  0.94882388  1
  Pt  Pt21_4  1  0.75000000  0.22978137  0.44882388  1
  Pt  Pt21_5  1  0.75000000  0.22978137  0.94882388  1
  Pt  Pt21_6  1  0.75000000  0.72978137  0.44882388  1
  Pt  Pt21_7  1  0.75000000  0.72978137  0.94882388  1
  Pt  Pt22_0  1  0.25000000  0.49909844  0.03324223  1
  Pt  Pt22_1  1  0.25000000  0.49909844  0.53324222  1
  Pt  Pt22_2  1  0.25000000  0.99909844  0.03324223  1
  Pt  Pt22_3  1  0.25000000  0.99909844  0.53324222  1
  Pt  Pt22_4  1  0.75000000  0.49909844  0.03324223  1
  Pt  Pt22_5  1  0.75000000  0.49909844  0.53324222  1
  Pt  Pt22_6  1  0.75000000  0.99909844  0.03324223  1
  Pt  Pt22_7  1  0.75000000  0.99909844  0.53324222  1
  Pt  Pt23_0  1  0.25000000  0.38088825  0.19053509  1
  Pt  Pt23_1  1  0.25000000  0.38088825  0.69053509  1
  Pt  Pt23_2  1  0.25000000  0.88088825  0.19053509  1
  Pt  Pt23_3  1  0.25000000  0.88088825  0.69053509  1
  Pt  Pt23_4  1  0.75000000  0.38088825  0.19053509  1
  Pt  Pt23_5  1  0.75000000  0.38088825  0.69053509  1
  Pt  Pt23_6  1  0.75000000  0.88088825  0.19053509  1
  Pt  Pt23_7  1  0.75000000  0.88088825  0.69053509  1
  Pt  Pt24_0  1  0.25000000  0.19035315  0.30946491  1
  Pt  Pt24_1  1  0.25000000  0.19035315  0.80946491  1
  Pt  Pt24_2  1  0.25000000  0.69035315  0.30946491  1
  Pt  Pt24_3  1  0.25000000  0.69035315  0.80946491  1
  Pt  Pt24_4  1  0.75000000  0.19035315  0.30946491  1
  Pt  Pt24_5  1  0.75000000  0.19035315  0.80946491  1
  Pt  Pt24_6  1  0.75000000  0.69035315  0.30946491  1
  Pt  Pt24_7  1  0.75000000  0.69035315  0.80946491  1
  Pt  Pt25_0  1  0.25000000  0.14707984  0.20574679  1
  Pt  Pt25_1  1  0.25000000  0.14707984  0.70574678  1
  Pt  Pt25_2  1  0.25000000  0.64707984  0.20574679  1
  Pt  Pt25_3  1  0.25000000  0.64707984  0.70574678  1
  Pt  Pt25_4  1  0.75000000  0.14707984  0.20574679  1
  Pt  Pt25_5  1  0.75000000  0.14707984  0.70574678  1
  Pt  Pt25_6  1  0.75000000  0.64707984  0.20574679  1
  Pt  Pt25_7  1  0.75000000  0.64707984  0.70574678  1
  Pt  Pt26_0  1  0.25000000  0.28095749  0.05117612  1
  Pt  Pt26_1  1  0.25000000  0.28095749  0.55117612  1
  Pt  Pt26_2  1  0.25000000  0.78095749  0.05117612  1
  Pt  Pt26_3  1  0.25000000  0.78095749  0.55117612  1
  Pt  Pt26_4  1  0.75000000  0.28095749  0.05117612  1
  Pt  Pt26_5  1  0.75000000  0.28095749  0.55117612  1
  Pt  Pt26_6  1  0.75000000  0.78095749  0.05117612  1
  Pt  Pt26_7  1  0.75000000  0.78095749  0.55117612  1
  Pt  Pt27_0  1  0.25000000  0.01811253  0.06991349  1
  Pt  Pt27_1  1  0.25000000  0.01811253  0.56991349  1
  Pt  Pt27_2  1  0.25000000  0.51811253  0.06991349  1
  Pt  Pt27_3  1  0.25000000  0.51811253  0.56991349  1
  Pt  Pt27_4  1  0.75000000  0.01811253  0.06991349  1
  Pt  Pt27_5  1  0.75000000  0.01811253  0.56991349  1
  Pt  Pt27_6  1  0.75000000  0.51811253  0.06991349  1
  Pt  Pt27_7  1  0.75000000  0.51811253  0.56991349  1
  Pt  Pt28_0  1  0.25000000  0.42598218  0.32693753  1
  Pt  Pt28_1  1  0.25000000  0.42598218  0.82693753  1
  Pt  Pt28_2  1  0.25000000  0.92598218  0.32693753  1
  Pt  Pt28_3  1  0.25000000  0.92598218  0.82693753  1
  Pt  Pt28_4  1  0.75000000  0.42598218  0.32693753  1
  Pt  Pt28_5  1  0.75000000  0.42598218  0.82693753  1
  Pt  Pt28_6  1  0.75000000  0.92598218  0.32693753  1
  Pt  Pt28_7  1  0.75000000  0.92598218  0.82693753  1
loop_
_geom_bond_atom_site_label_1
_geom_bond_atom_site_label_2
_geom_bond_distance
_geom_bond_site_symmetry_2
Zn0_0 Zn14_0 2.687015 1_555
Zn0_0 Zn40_0 2.701758 1_555
Zn0_0 Zn17_0 2.746054 1_555
Zn0_0 Zn0_4 2.805967 1_555
Zn0_0 Zn0_4 2.805967 1_455
Zn0_1 Zn14_1 2.687015 1_555
Zn0_1 Zn40_1 2.701758 1_555
Zn0_1 Zn17_1 2.746054 1_555
Zn0_1 Zn0_5 2.805967 1_555
Zn0_1 Zn0_5 2.805967 1_455
Zn0_2 Zn14_2 2.687015 1_555
Zn0_2 Zn40_2 2.701758 1_555
Zn0_2 Zn17_2 2.746054 1_555
Zn0_2 Zn0_6 2.805967 1_555
Zn0_2 Zn0_6 2.805967 1_455
Zn0_3 Zn14_3 2.687015 1_555
Zn0_3 Zn40_3 2.701758 1_555
Zn0_3 Zn17_3 2.746054 1_555
Zn0_3 Zn0_7 2.805967 1_555
Zn0_3 Zn0_7 2.805967 1_455
Zn0_4 Zn14_4 2.687015 1_555
Zn0_4 Zn40_4 2.701758 1_555
Zn0_4 Zn17_4 2.746054 1_555
Zn0_5 Zn14_5 2.687015 1_555
Zn0_5 Zn40_5 2.701758 1_555
Zn0_5 Zn17_5 2.746054 1_555
Zn0_6 Zn14_6 2.687015 1_555
Zn0_6 Zn40_6 2.701758 1_555
Zn0_6 Zn17_6 2.746054 1_555
Zn0_7 Zn14_7 2.687015 1_555
Zn0_7 Zn40_7 2.701758 1_555
Zn0_7 Zn17_7 2.746054 1_555
Zn1_0 Zn4_0 2.793473 1_555
Zn1_0 Zn1_4 2.805967 1_555
Zn1_0 Zn1_4 2.805967 1_455
Zn1_0 Zn33_0 2.840378 1_555
Zn1_0 Zn20_0 2.843297 1_555
Zn1_0 Zn26_0 2.877580 1_555
Zn1_1 Zn4_1 2.793473 1_555
Zn1_1 Zn1_5 2.805967 1_555
Zn1_1 Zn1_5 2.805967 1_455
Zn1_1 Zn33_1 2.840378 1_555
Zn1_1 Zn20_1 2.843297 1_555
Zn1_1 Zn26_1 2.877580 1_555
Zn1_2 Zn4_2 2.793473 1_555
Zn1_2 Zn1_6 2.805967 1_555
Zn1_2 Zn1_6 2.805967 1_455
Zn1_2 Zn33_2 2.840378 1_555
Zn1_2 Zn20_2 2.843297 1_555
Zn1_2 Zn26_2 2.877580 1_555
Zn1_3 Zn4_3 2.793473 1_555
Zn1_3 Zn1_7 2.805967 1_555
Zn1_3 Zn1_7 2.805967 1_455
Zn1_3 Zn33_3 2.840378 1_555
Zn1_3 Zn20_3 2.843297 1_555
Zn1_3 Zn26_3 2.877580 1_555
Zn1_4 Zn4_4 2.793473 1_555
Zn1_4 Zn33_4 2.840378 1_555
Zn1_4 Zn20_4 2.843297 1_555
Zn1_4 Zn26_4 2.877580 1_555
Zn1_5 Zn4_5 2.793473 1_555
Zn1_5 Zn33_5 2.840378 1_555
Zn1_5 Zn20_5 2.843297 1_555
Zn1_5 Zn26_5 2.877580 1_555
Zn1_6 Zn4_6 2.793473 1_555
Zn1_6 Zn33_6 2.840378 1_555
Zn1_6 Zn20_6 2.843297 1_555
Zn1_6 Zn26_6 2.877580 1_555
Zn1_7 Zn4_7 2.793473 1_555
Zn1_7 Zn33_7 2.840378 1_555
Zn1_7 Zn20_7 2.843297 1_555
Zn1_7 Zn26_7 2.877580 1_555
Zn2_0 Zn7_0 2.701758 1_555
Zn2_0 Zn2_4 2.805967 1_555
Zn2_0 Zn2_4 2.805967 1_455
Zn2_1 Zn7_1 2.701758 1_555
Zn2_1 Zn2_5 2.805967 1_555
Zn2_1 Zn2_5 2.805967 1_455
Zn2_2 Zn7_2 2.701758 1_555
Zn2_2 Zn2_6 2.805967 1_555
Zn2_2 Zn2_6 2.805967 1_455
Zn2_3 Zn7_3 2.701758 1_555
Zn2_3 Zn2_7 2.805967 1_555
Zn2_3 Zn2_7 2.805967 1_455
Zn2_4 Zn7_4 2.701758 1_555
Zn2_5 Zn7_5 2.701758 1_555
Zn2_6 Zn7_6 2.701758 1_555
Zn2_7 Zn7_7 2.701758 1_555
Zn3_0 Zn45_0 2.675855 1_555
Zn3_0 Zn4_0 2.719040 1_555
Zn3_0 Zn3_4 2.805967 1_555
Zn3_0 Zn3_4 2.805967 1_455
Zn3_1 Zn45_1 2.675855 1_555
Zn3_1 Zn4_1 2.719040 1_555
Zn3_1 Zn3_5 2.805967 1_555
Zn3_1 Zn3_5 2.805967 1_455
Zn3_2 Zn45_2 2.675855 1_555
Zn3_2 Zn4_2 2.719040 1_555
Zn3_2 Zn3_6 2.805967 1_555
Zn3_2 Zn3_6 2.805967 1_455
Zn3_3 Zn45_3 2.675855 1_555
Zn3_3 Zn4_3 2.719040 1_555
Zn3_3 Zn3_7 2.805967 1_555
Zn3_3 Zn3_7 2.805967 1_455
Zn3_4 Zn45_4 2.675855 1_555
Zn3_4 Zn4_4 2.719040 1_555
Zn3_5 Zn45_5 2.675855 1_555
Zn3_5 Zn4_5 2.719040 1_555
Zn3_6 Zn45_6 2.675855 1_555
Zn3_6 Zn4_6 2.719040 1_555
Zn3_7 Zn45_7 2.675855 1_555
Zn3_7 Zn4_7 2.719040 1_555
Zn4_0 Zn4_4 2.805967 1_555
Zn4_0 Zn4_4 2.805967 1_455
Zn4_1 Zn4_5 2.805967 1_555
Zn4_1 Zn4_5 2.805967 1_455
Zn4_2 Zn4_6 2.805967 1_555
Zn4_2 Zn4_6 2.805967 1_455
Zn4_3 Zn4_7 2.805967 1_555
Zn4_3 Zn4_7 2.805967 1_455
Zn5_0 Zn5_4 2.805967 1_555
Zn5_0 Zn5_4 2.805967 1_455
Zn5_1 Zn5_5 2.805967 1_555
Zn5_1 Zn5_5 2.805967 1_455
Zn5_2 Zn5_6 2.805967 1_555
Zn5_2 Zn5_6 2.805967 1_455
Zn5_3 Zn5_7 2.805967 1_555
Zn5_3 Zn5_7 2.805967 1_455
Zn6_0 Zn6_4 2.805967 1_555
Zn6_0 Zn6_4 2.805967 1_455
Zn6_1 Zn6_5 2.805967 1_555
Zn6_1 Zn6_5 2.805967 1_455
Zn6_2 Zn6_6 2.805967 1_555
Zn6_2 Zn6_6 2.805967 1_455
Zn6_3 Zn6_7 2.805967 1_555
Zn6_3 Zn6_7 2.805967 1_455
Zn7_0 Zn7_4 2.805967 1_555
Zn7_0 Zn7_4 2.805967 1_455
Zn7_1 Zn7_5 2.805967 1_555
Zn7_1 Zn7_5 2.805967 1_455
Zn7_2 Zn7_6 2.805967 1_555
Zn7_2 Zn7_6 2.805967 1_455
Zn7_3 Zn7_7 2.805967 1_555
Zn7_3 Zn7_7 2.805967 1_455
Zn8_0 Zn8_4 2.805967 1_555
Zn8_0 Zn8_4 2.805967 1_455
Zn8_1 Zn8_5 2.805967 1_555
Zn8_1 Zn8_5 2.805967 1_455
Zn8_2 Zn8_6 2.805967 1_555
Zn8_2 Zn8_6 2.805967 1_455
Zn8_3 Zn8_7 2.805967 1_555
Zn8_3 Zn8_7 2.805967 1_455
Zn9_0 Zn9_4 2.805967 1_555
Zn9_0 Zn9_4 2.805967 1_455
Zn9_1 Zn9_5 2.805967 1_555
Zn9_1 Zn9_5 2.805967 1_455
Zn9_2 Zn9_6 2.805967 1_555
Zn9_2 Zn9_6 2.805967 1_455
Zn9_3 Zn9_7 2.805967 1_555
Zn9_3 Zn9_7 2.805967 1_455
Zn10_0 Zn47_0 2.676574 1_555
Zn10_0 Zn42_0 2.689373 1_555
Zn10_0 Zn25_0 2.697882 1_555
Zn10_0 Zn10_4 2.805967 1_555
Zn10_0 Zn10_4 2.805967 1_455
Zn10_1 Zn47_1 2.676574 1_555
Zn10_1 Zn42_1 2.689373 1_555
Zn10_1 Zn25_1 2.697882 1_555
Zn10_1 Zn10_5 2.805967 1_555
Zn10_1 Zn10_5 2.805967 1_455
Zn10_2 Zn47_2 2.676574 1_555
Zn10_2 Zn42_2 2.689373 1_555
Zn10_2 Zn25_2 2.697882 1_555
Zn10_2 Zn10_6 2.805967 1_555
Zn10_2 Zn10_6 2.805967 1_455
Zn10_3 Zn47_3 2.676574 1_555
Zn10_3 Zn42_3 2.689373 1_555
Zn10_3 Zn25_3 2.697882 1_555
Zn10_3 Zn10_7 2.805967 1_555
Zn10_3 Zn10_7 2.805967 1_455
Zn10_4 Zn47_4 2.676574 1_555
Zn10_4 Zn42_4 2.689373 1_555
Zn10_4 Zn25_4 2.697882 1_555
Zn10_5 Zn47_5 2.676574 1_555
Zn10_5 Zn42_5 2.689373 1_555
Zn10_5 Zn25_5 2.697882 1_555
Zn10_6 Zn47_6 2.676574 1_555
Zn10_6 Zn42_6 2.689373 1_555
Zn10_6 Zn25_6 2.697882 1_555
Zn10_7 Zn47_7 2.676574 1_555
Zn10_7 Zn42_7 2.689373 1_555
Zn10_7 Zn25_7 2.697882 1_555
Zn11_0 Zn13_0 2.715578 1_555
Zn11_0 Zn2_0 2.746054 1_555
Zn11_0 Zn11_4 2.805967 1_555
Zn11_0 Zn11_4 2.805967 1_455
Zn11_0 Zn47_0 2.950249 1_555
Zn11_0 Zn25_2 3.009075 1_545
Zn11_1 Zn13_1 2.715578 1_555
Zn11_1 Zn2_1 2.746054 1_555
Zn11_1 Zn11_5 2.805967 1_555
Zn11_1 Zn11_5 2.805967 1_455
Zn11_1 Zn47_1 2.950249 1_555
Zn11_1 Zn25_3 3.009075 1_545
Zn11_2 Zn13_2 2.715578 1_555
Zn11_2 Zn2_2 2.746054 1_555
Zn11_2 Zn11_6 2.805967 1_555
Zn11_2 Zn11_6 2.805967 1_455
Zn11_2 Zn47_2 2.950249 1_555
Zn11_2 Zn25_0 3.009075 1_555
Zn11_3 Zn13_3 2.715578 1_555
Zn11_3 Zn2_3 2.746054 1_555
Zn11_3 Zn11_7 2.805967 1_555
Zn11_3 Zn11_7 2.805967 1_455
Zn11_3 Zn47_3 2.950249 1_555
Zn11_3 Zn25_1 3.009075 1_555
Zn11_4 Zn13_4 2.715578 1_555
Zn11_4 Zn2_4 2.746054 1_555
Zn11_4 Zn47_4 2.950249 1_555
Zn11_4 Zn25_6 3.009075 1_545
Zn11_5 Zn13_5 2.715578 1_555
Zn11_5 Zn2_5 2.746054 1_555
Zn11_5 Zn47_5 2.950249 1_555
Zn11_5 Zn25_7 3.009075 1_545
Zn11_6 Zn13_6 2.715578 1_555
Zn11_6 Zn2_6 2.746054 1_555
Zn11_6 Zn47_6 2.950249 1_555
Zn11_6 Zn25_4 3.009075 1_555
Zn11_7 Zn13_7 2.715578 1_555
Zn11_7 Zn2_7 2.746054 1_555
Zn11_7 Zn47_7 2.950249 1_555
Zn11_7 Zn25_5 3.009075 1_555
Zn12_0 Zn32_0 2.772073 1_555
Zn12_0 Zn12_4 2.805967 1_555
Zn12_0 Zn12_4 2.805967 1_455
Zn12_0 Zn3_2 2.810622 1_555
Zn12_0 Zn40_0 2.888459 1_555
Zn12_0 Zn45_0 2.925293 1_555
Zn12_1 Zn32_1 2.772073 1_555
Zn12_1 Zn12_5 2.805967 1_555
Zn12_1 Zn12_5 2.805967 1_455
Zn12_1 Zn3_3 2.810622 1_555
Zn12_1 Zn40_1 2.888459 1_555
Zn12_1 Zn45_1 2.925293 1_555
Zn12_2 Zn32_2 2.772073 1_555
Zn12_2 Zn12_6 2.805967 1_555
Zn12_2 Zn12_6 2.805967 1_455
Zn12_2 Zn3_0 2.810622 1_565
Zn12_2 Zn40_2 2.888459 1_555
Zn12_2 Zn45_2 2.925293 1_555
Zn12_3 Zn32_3 2.772073 1_555
Zn12_3 Zn12_7 2.805967 1_555
Zn12_3 Zn12_7 2.805967 1_455
Zn12_3 Zn3_1 2.810622 1_565
Zn12_3 Zn40_3 2.888459 1_555
Zn12_3 Zn45_3 2.925293 1_555
Zn12_4 Zn32_4 2.772073 1_555
Zn12_4 Zn3_6 2.810622 1_555
Zn12_4 Zn40_4 2.888459 1_555
Zn12_4 Zn45_4 2.925293 1_555
Zn12_5 Zn32_5 2.772073 1_555
Zn12_5 Zn3_7 2.810622 1_555
Zn12_5 Zn40_5 2.888459 1_555
Zn12_5 Zn45_5 2.925293 1_555
Zn12_6 Zn32_6 2.772073 1_555
Zn12_6 Zn3_4 2.810622 1_565
Zn12_6 Zn40_6 2.888459 1_555
Zn12_6 Zn45_6 2.925293 1_555
Zn12_7 Zn32_7 2.772073 1_555
Zn12_7 Zn3_5 2.810622 1_565
Zn12_7 Zn40_7 2.888459 1_555
Zn12_7 Zn45_7 2.925293 1_555
Zn13_0 Zn7_2 2.655448 1_545
Zn13_0 Zn39_0 2.718205 1_555
Zn13_0 Zn13_4 2.805967 1_555
Zn13_0 Zn13_4 2.805967 1_455
Zn13_1 Zn7_3 2.655448 1_545
Zn13_1 Zn39_1 2.718205 1_555
Zn13_1 Zn13_5 2.805967 1_555
Zn13_1 Zn13_5 2.805967 1_455
Zn13_2 Zn7_0 2.655448 1_555
Zn13_2 Zn39_2 2.718205 1_555
Zn13_2 Zn13_6 2.805967 1_555
Zn13_2 Zn13_6 2.805967 1_455
Zn13_3 Zn7_1 2.655448 1_555
Zn13_3 Zn39_3 2.718205 1_555
Zn13_3 Zn13_7 2.805967 1_555
Zn13_3 Zn13_7 2.805967 1_455
Zn13_4 Zn7_6 2.655448 1_545
Zn13_4 Zn39_4 2.718205 1_555
Zn13_5 Zn7_7 2.655448 1_545
Zn13_5 Zn39_5 2.718205 1_555
Zn13_6 Zn7_4 2.655448 1_555
Zn13_6 Zn39_6 2.718205 1_555
Zn13_7 Zn7_5 2.655448 1_555
Zn13_7 Zn39_7 2.718205 1_555
Zn14_0 Zn6_0 2.697882 1_555
Zn14_0 Zn14_4 2.805967 1_555
Zn14_0 Zn14_4 2.805967 1_455
Zn14_0 Zn17_2 3.009075 1_555
Zn14_1 Zn6_1 2.697882 1_555
Zn14_1 Zn14_5 2.805967 1_555
Zn14_1 Zn14_5 2.805967 1_455
Zn14_1 Zn17_3 3.009075 1_555
Zn14_2 Zn6_2 2.697882 1_555
Zn14_2 Zn14_6 2.805967 1_555
Zn14_2 Zn14_6 2.805967 1_455
Zn14_2 Zn17_0 3.009075 1_565
Zn14_3 Zn6_3 2.697882 1_555
Zn14_3 Zn14_7 2.805967 1_555
Zn14_3 Zn14_7 2.805967 1_455
Zn14_3 Zn17_1 3.009075 1_565
Zn14_4 Zn6_4 2.697882 1_555
Zn14_4 Zn17_6 3.009075 1_555
Zn14_5 Zn6_5 2.697882 1_555
Zn14_5 Zn17_7 3.009075 1_555
Zn14_6 Zn6_6 2.697882 1_555
Zn14_6 Zn17_4 3.009075 1_565
Zn14_7 Zn6_7 2.697882 1_555
Zn14_7 Zn17_5 3.009075 1_565
Zn15_0 Zn29_0 2.695781 1_555
Zn15_0 Zn27_0 2.718866 1_555
Zn15_0 Zn15_4 2.805967 1_555
Zn15_0 Zn15_4 2.805967 1_455
Zn15_0 Zn28_0 2.968919 1_555
Zn15_0 Zn8_0 3.029332 1_555
Zn15_1 Zn29_1 2.695781 1_555
Zn15_1 Zn27_1 2.718866 1_555
Zn15_1 Zn15_5 2.805967 1_555
Zn15_1 Zn15_5 2.805967 1_455
Zn15_1 Zn28_1 2.968919 1_555
Zn15_1 Zn8_1 3.029332 1_555
Zn15_2 Zn29_2 2.695781 1_555
Zn15_2 Zn27_2 2.718866 1_555
Zn15_2 Zn15_6 2.805967 1_555
Zn15_2 Zn15_6 2.805967 1_455
Zn15_2 Zn28_2 2.968919 1_555
Zn15_2 Zn8_2 3.029332 1_555
Zn15_3 Zn29_3 2.695781 1_555
Zn15_3 Zn27_3 2.718866 1_555
Zn15_3 Zn15_7 2.805967 1_555
Zn15_3 Zn15_7 2.805967 1_455
Zn15_3 Zn28_3 2.968919 1_555
Zn15_3 Zn8_3 3.029332 1_555
Zn15_4 Zn29_4 2.695781 1_555
Zn15_4 Zn27_4 2.718866 1_555
Zn15_4 Zn28_4 2.968919 1_555
Zn15_4 Zn8_4 3.029332 1_555
Zn15_5 Zn29_5 2.695781 1_555
Zn15_5 Zn27_5 2.718866 1_555
Zn15_5 Zn28_5 2.968919 1_555
Zn15_5 Zn8_5 3.029332 1_555
Zn15_6 Zn29_6 2.695781 1_555
Zn15_6 Zn27_6 2.718866 1_555
Zn15_6 Zn28_6 2.968919 1_555
Zn15_6 Zn8_6 3.029332 1_555
Zn15_7 Zn29_7 2.695781 1_555
Zn15_7 Zn27_7 2.718866 1_555
Zn15_7 Zn28_7 2.968919 1_555
Zn15_7 Zn8_7 3.029332 1_555
Zn16_0 Zn33_0 2.675321 1_555
Zn16_0 Zn19_0 2.703653 1_555
Zn16_0 Zn31_2 2.718866 1_555
Zn16_0 Zn16_4 2.805967 1_555
Zn16_0 Zn16_4 2.805967 1_455
Zn16_1 Zn33_1 2.675321 1_555
Zn16_1 Zn19_1 2.703653 1_555
Zn16_1 Zn31_3 2.718866 1_555
Zn16_1 Zn16_5 2.805967 1_555
Zn16_1 Zn16_5 2.805967 1_455
Zn16_2 Zn33_2 2.675321 1_555
Zn16_2 Zn19_2 2.703653 1_555
Zn16_2 Zn31_0 2.718866 1_565
Zn16_2 Zn16_6 2.805967 1_555
Zn16_2 Zn16_6 2.805967 1_455
Zn16_3 Zn33_3 2.675321 1_555
Zn16_3 Zn19_3 2.703653 1_555
Zn16_3 Zn31_1 2.718866 1_565
Zn16_3 Zn16_7 2.805967 1_555
Zn16_3 Zn16_7 2.805967 1_455
Zn16_4 Zn33_4 2.675321 1_555
Zn16_4 Zn19_4 2.703653 1_555
Zn16_4 Zn31_6 2.718866 1_555
Zn16_5 Zn33_5 2.675321 1_555
Zn16_5 Zn19_5 2.703653 1_555
Zn16_5 Zn31_7 2.718866 1_555
Zn16_6 Zn33_6 2.675321 1_555
Zn16_6 Zn19_6 2.703653 1_555
Zn16_6 Zn31_4 2.718866 1_565
Zn16_7 Zn33_7 2.675321 1_555
Zn16_7 Zn19_7 2.703653 1_555
Zn16_7 Zn31_5 2.718866 1_565
Zn17_0 Zn5_0 2.715578 1_555
Zn17_0 Zn17_4 2.805967 1_555
Zn17_0 Zn17_4 2.805967 1_455
Zn17_0 Zn30_0 2.950249 1_555
Zn17_1 Zn5_1 2.715578 1_555
Zn17_1 Zn17_5 2.805967 1_555
Zn17_1 Zn17_5 2.805967 1_455
Zn17_1 Zn30_1 2.950249 1_555
Zn17_2 Zn5_2 2.715578 1_555
Zn17_2 Zn17_6 2.805967 1_555
Zn17_2 Zn17_6 2.805967 1_455
Zn17_2 Zn30_2 2.950249 1_555
Zn17_3 Zn5_3 2.715578 1_555
Zn17_3 Zn17_7 2.805967 1_555
Zn17_3 Zn17_7 2.805967 1_455
Zn17_3 Zn30_3 2.950249 1_555
Zn17_4 Zn5_4 2.715578 1_555
Zn17_4 Zn30_4 2.950249 1_555
Zn17_5 Zn5_5 2.715578 1_555
Zn17_5 Zn30_5 2.950249 1_555
Zn17_6 Zn5_6 2.715578 1_555
Zn17_6 Zn30_6 2.950249 1_555
Zn17_7 Zn5_7 2.715578 1_555
Zn17_7 Zn30_7 2.950249 1_555
Zn18_0 Zn44_0 2.691577 1_555
Zn18_0 Zn36_1 2.691577 1_554
Zn18_0 Zn18_4 2.805967 1_555
Zn18_0 Zn18_4 2.805967 1_455
Zn18_0 Zn42_1 3.084171 1_554
Zn18_0 Zn46_0 3.084171 1_555
Zn18_1 Zn44_1 2.691577 1_555
Zn18_1 Zn36_0 2.691577 1_555
Zn18_1 Zn18_5 2.805967 1_555
Zn18_1 Zn18_5 2.805967 1_455
Zn18_1 Zn42_0 3.084171 1_555
Zn18_1 Zn46_1 3.084171 1_555
Zn18_2 Zn44_2 2.691577 1_555
Zn18_2 Zn36_3 2.691577 1_554
Zn18_2 Zn18_6 2.805967 1_555
Zn18_2 Zn18_6 2.805967 1_455
Zn18_2 Zn42_3 3.084171 1_554
Zn18_2 Zn46_2 3.084171 1_555
Zn18_3 Zn44_3 2.691577 1_555
Zn18_3 Zn36_2 2.691577 1_555
Zn18_3 Zn18_7 2.805967 1_555
Zn18_3 Zn18_7 2.805967 1_455
Zn18_3 Zn42_2 3.084171 1_555
Zn18_3 Zn46_3 3.084171 1_555
Zn18_4 Zn44_4 2.691577 1_555
Zn18_4 Zn36_5 2.691577 1_554
Zn18_4 Zn42_5 3.084171 1_554
Zn18_4 Zn46_4 3.084171 1_555
Zn18_5 Zn44_5 2.691577 1_555
Zn18_5 Zn36_4 2.691577 1_555
Zn18_5 Zn42_4 3.084171 1_555
Zn18_5 Zn46_5 3.084171 1_555
Zn18_6 Zn44_6 2.691577 1_555
Zn18_6 Zn36_7 2.691577 1_554
Zn18_6 Zn42_7 3.084171 1_554
Zn18_6 Zn46_6 3.084171 1_555
Zn18_7 Zn44_7 2.691577 1_555
Zn18_7 Zn36_6 2.691577 1_555
Zn18_7 Zn42_6 3.084171 1_555
Zn18_7 Zn46_7 3.084171 1_555
Zn19_0 Zn41_0 2.699202 1_555
Zn19_0 Zn19_4 2.805967 1_555
Zn19_0 Zn19_4 2.805967 1_455
Zn19_0 Zn31_0 3.029332 1_555
Zn19_0 Zn35_0 3.134325 1_555
Zn19_1 Zn41_1 2.699202 1_555
Zn19_1 Zn19_5 2.805967 1_555
Zn19_1 Zn19_5 2.805967 1_455
Zn19_1 Zn31_1 3.029332 1_555
Zn19_1 Zn35_1 3.134325 1_555
Zn19_2 Zn41_2 2.699202 1_555
Zn19_2 Zn19_6 2.805967 1_555
Zn19_2 Zn19_6 2.805967 1_455
Zn19_2 Zn31_2 3.029332 1_555
Zn19_2 Zn35_2 3.134325 1_555
Zn19_3 Zn41_3 2.699202 1_555
Zn19_3 Zn19_7 2.805967 1_555
Zn19_3 Zn19_7 2.805967 1_455
Zn19_3 Zn31_3 3.029332 1_555
Zn19_3 Zn35_3 3.134325 1_555
Zn19_4 Zn41_4 2.699202 1_555
Zn19_4 Zn31_4 3.029332 1_555
Zn19_4 Zn35_4 3.134325 1_555
Zn19_5 Zn41_5 2.699202 1_555
Zn19_5 Zn31_5 3.029332 1_555
Zn19_5 Zn35_5 3.134325 1_555
Zn19_6 Zn41_6 2.699202 1_555
Zn19_6 Zn31_6 3.029332 1_555
Zn19_6 Zn35_6 3.134325 1_555
Zn19_7 Zn41_7 2.699202 1_555
Zn19_7 Zn31_7 3.029332 1_555
Zn19_7 Zn35_7 3.134325 1_555
Zn20_0 Zn26_2 2.700081 1_545
Zn20_0 Zn32_2 2.713710 1_545
Zn20_0 Zn20_4 2.805967 1_555
Zn20_0 Zn20_4 2.805967 1_455
Zn20_1 Zn26_3 2.700081 1_545
Zn20_1 Zn32_3 2.713710 1_545
Zn20_1 Zn20_5 2.805967 1_555
Zn20_1 Zn20_5 2.805967 1_455
Zn20_2 Zn26_0 2.700081 1_555
Zn20_2 Zn32_0 2.713710 1_555
Zn20_2 Zn20_6 2.805967 1_555
Zn20_2 Zn20_6 2.805967 1_455
Zn20_3 Zn26_1 2.700081 1_555
Zn20_3 Zn32_1 2.713710 1_555
Zn20_3 Zn20_7 2.805967 1_555
Zn20_3 Zn20_7 2.805967 1_455
Zn20_4 Zn26_6 2.700081 1_545
Zn20_4 Zn32_6 2.713710 1_545
Zn20_5 Zn26_7 2.700081 1_545
Zn20_5 Zn32_7 2.713710 1_545
Zn20_6 Zn26_4 2.700081 1_555
Zn20_6 Zn32_4 2.713710 1_555
Zn20_7 Zn26_5 2.700081 1_555
Zn20_7 Zn32_5 2.713710 1_555
Zn21_0 Zn39_0 2.675855 1_555
Zn21_0 Zn23_0 2.719040 1_555
Zn21_0 Zn21_4 2.805967 1_555
Zn21_0 Zn21_4 2.805967 1_455
Zn21_0 Zn37_2 2.810622 1_545
Zn21_1 Zn39_1 2.675855 1_555
Zn21_1 Zn23_1 2.719040 1_555
Zn21_1 Zn21_5 2.805967 1_555
Zn21_1 Zn21_5 2.805967 1_455
Zn21_1 Zn37_3 2.810622 1_545
Zn21_2 Zn39_2 2.675855 1_555
Zn21_2 Zn23_2 2.719040 1_555
Zn21_2 Zn21_6 2.805967 1_555
Zn21_2 Zn21_6 2.805967 1_455
Zn21_2 Zn37_0 2.810622 1_555
Zn21_3 Zn39_3 2.675855 1_555
Zn21_3 Zn23_3 2.719040 1_555
Zn21_3 Zn21_7 2.805967 1_555
Zn21_3 Zn21_7 2.805967 1_455
Zn21_3 Zn37_1 2.810622 1_555
Zn21_4 Zn39_4 2.675855 1_555
Zn21_4 Zn23_4 2.719040 1_555
Zn21_4 Zn37_6 2.810622 1_545
Zn21_5 Zn39_5 2.675855 1_555
Zn21_5 Zn23_5 2.719040 1_555
Zn21_5 Zn37_7 2.810622 1_545
Zn21_6 Zn39_6 2.675855 1_555
Zn21_6 Zn23_6 2.719040 1_555
Zn21_6 Zn37_4 2.810622 1_555
Zn21_7 Zn39_7 2.675855 1_555
Zn21_7 Zn23_7 2.719040 1_555
Zn21_7 Zn37_5 2.810622 1_555
Zn22_0 Zn33_0 2.647668 1_555
Zn22_0 Zn26_2 2.691831 1_545
Zn22_0 Zn31_0 2.695781 1_555
Zn22_0 Zn22_4 2.805967 1_555
Zn22_0 Zn22_4 2.805967 1_455
Zn22_1 Zn33_1 2.647668 1_555
Zn22_1 Zn26_3 2.691831 1_545
Zn22_1 Zn31_1 2.695781 1_555
Zn22_1 Zn22_5 2.805967 1_555
Zn22_1 Zn22_5 2.805967 1_455
Zn22_2 Zn33_2 2.647668 1_555
Zn22_2 Zn26_0 2.691831 1_555
Zn22_2 Zn31_2 2.695781 1_555
Zn22_2 Zn22_6 2.805967 1_555
Zn22_2 Zn22_6 2.805967 1_455
Zn22_3 Zn33_3 2.647668 1_555
Zn22_3 Zn26_1 2.691831 1_555
Zn22_3 Zn31_3 2.695781 1_555
Zn22_3 Zn22_7 2.805967 1_555
Zn22_3 Zn22_7 2.805967 1_455
Zn22_4 Zn33_4 2.647668 1_555
Zn22_4 Zn26_6 2.691831 1_545
Zn22_4 Zn31_4 2.695781 1_555
Zn22_5 Zn33_5 2.647668 1_555
Zn22_5 Zn26_7 2.691831 1_545
Zn22_5 Zn31_5 2.695781 1_555
Zn22_6 Zn33_6 2.647668 1_555
Zn22_6 Zn26_4 2.691831 1_555
Zn22_6 Zn31_6 2.695781 1_555
Zn22_7 Zn33_7 2.647668 1_555
Zn22_7 Zn26_5 2.691831 1_555
Zn22_7 Zn31_7 2.695781 1_555
Zn23_0 Zn34_0 2.646473 1_555
Zn23_0 Zn24_0 2.793473 1_555
Zn23_0 Zn23_4 2.805967 1_555
Zn23_0 Zn23_4 2.805967 1_455
Zn23_1 Zn34_1 2.646473 1_555
Zn23_1 Zn24_1 2.793473 1_555
Zn23_1 Zn23_5 2.805967 1_555
Zn23_1 Zn23_5 2.805967 1_455
Zn23_2 Zn34_2 2.646473 1_555
Zn23_2 Zn24_2 2.793473 1_555
Zn23_2 Zn23_6 2.805967 1_555
Zn23_2 Zn23_6 2.805967 1_455
Zn23_3 Zn34_3 2.646473 1_555
Zn23_3 Zn24_3 2.793473 1_555
Zn23_3 Zn23_7 2.805967 1_555
Zn23_3 Zn23_7 2.805967 1_455
Zn23_4 Zn34_4 2.646473 1_555
Zn23_4 Zn24_4 2.793473 1_555
Zn23_5 Zn34_5 2.646473 1_555
Zn23_5 Zn24_5 2.793473 1_555
Zn23_6 Zn34_6 2.646473 1_555
Zn23_6 Zn24_6 2.793473 1_555
Zn23_7 Zn34_7 2.646473 1_555
Zn23_7 Zn24_7 2.793473 1_555
Zn24_0 Zn24_4 2.805967 1_555
Zn24_0 Zn24_4 2.805967 1_455
Zn24_0 Zn43_0 2.840378 1_555
Zn24_0 Zn38_2 2.843297 1_545
Zn24_0 Zn9_0 2.877580 1_555
Zn24_1 Zn24_5 2.805967 1_555
Zn24_1 Zn24_5 2.805967 1_455
Zn24_1 Zn43_1 2.840378 1_555
Zn24_1 Zn38_3 2.843297 1_545
Zn24_1 Zn9_1 2.877580 1_555
Zn24_2 Zn24_6 2.805967 1_555
Zn24_2 Zn24_6 2.805967 1_455
Zn24_2 Zn43_2 2.840378 1_555
Zn24_2 Zn38_0 2.843297 1_555
Zn24_2 Zn9_2 2.877580 1_555
Zn24_3 Zn24_7 2.805967 1_555
Zn24_3 Zn24_7 2.805967 1_455
Zn24_3 Zn43_3 2.840378 1_555
Zn24_3 Zn38_1 2.843297 1_555
Zn24_3 Zn9_3 2.877580 1_555
Zn24_4 Zn43_4 2.840378 1_555
Zn24_4 Zn38_6 2.843297 1_545
Zn24_4 Zn9_4 2.877580 1_555
Zn24_5 Zn43_5 2.840378 1_555
Zn24_5 Zn38_7 2.843297 1_545
Zn24_5 Zn9_5 2.877580 1_555
Zn24_6 Zn43_6 2.840378 1_555
Zn24_6 Zn38_4 2.843297 1_555
Zn24_6 Zn9_6 2.877580 1_555
Zn24_7 Zn43_7 2.840378 1_555
Zn24_7 Zn38_5 2.843297 1_555
Zn24_7 Zn9_7 2.877580 1_555
Zn25_0 Zn2_0 2.687015 1_555
Zn25_0 Zn25_4 2.805967 1_555
Zn25_0 Zn25_4 2.805967 1_455
Zn25_1 Zn2_1 2.687015 1_555
Zn25_1 Zn25_5 2.805967 1_555
Zn25_1 Zn25_5 2.805967 1_455
Zn25_2 Zn2_2 2.687015 1_555
Zn25_2 Zn25_6 2.805967 1_555
Zn25_2 Zn25_6 2.805967 1_455
Zn25_3 Zn2_3 2.687015 1_555
Zn25_3 Zn25_7 2.805967 1_555
Zn25_3 Zn25_7 2.805967 1_455
Zn25_4 Zn2_4 2.687015 1_555
Zn25_5 Zn2_5 2.687015 1_555
Zn25_6 Zn2_6 2.687015 1_555
Zn25_7 Zn2_7 2.687015 1_555
Zn26_0 Zn26_4 2.805967 1_555
Zn26_0 Zn26_4 2.805967 1_455
Zn26_1 Zn26_5 2.805967 1_555
Zn26_1 Zn26_5 2.805967 1_455
Zn26_2 Zn26_6 2.805967 1_555
Zn26_2 Zn26_6 2.805967 1_455
Zn26_3 Zn26_7 2.805967 1_555
Zn26_3 Zn26_7 2.805967 1_455
Zn27_0 Zn43_0 2.675321 1_555
Zn27_0 Zn8_2 2.703653 1_545
Zn27_0 Zn27_4 2.805967 1_555
Zn27_0 Zn27_4 2.805967 1_455
Zn27_1 Zn43_1 2.675321 1_555
Zn27_1 Zn8_3 2.703653 1_545
Zn27_1 Zn27_5 2.805967 1_555
Zn27_1 Zn27_5 2.805967 1_455
Zn27_2 Zn43_2 2.675321 1_555
Zn27_2 Zn8_0 2.703653 1_555
Zn27_2 Zn27_6 2.805967 1_555
Zn27_2 Zn27_6 2.805967 1_455
Zn27_3 Zn43_3 2.675321 1_555
Zn27_3 Zn8_1 2.703653 1_555
Zn27_3 Zn27_7 2.805967 1_555
Zn27_3 Zn27_7 2.805967 1_455
Zn27_4 Zn43_4 2.675321 1_555
Zn27_4 Zn8_6 2.703653 1_545
Zn27_5 Zn43_5 2.675321 1_555
Zn27_5 Zn8_7 2.703653 1_545
Zn27_6 Zn43_6 2.675321 1_555
Zn27_6 Zn8_4 2.703653 1_555
Zn27_7 Zn43_7 2.675321 1_555
Zn27_7 Zn8_5 2.703653 1_555
Zn28_0 Zn48_0 2.687722 1_555
Zn28_0 Zn41_0 2.693300 1_555
Zn28_0 Zn28_4 2.805967 1_555
Zn28_0 Zn28_4 2.805967 1_455
Zn28_0 Zn8_0 3.134325 1_555
Zn28_1 Zn48_1 2.687722 1_555
Zn28_1 Zn41_1 2.693300 1_555
Zn28_1 Zn28_5 2.805967 1_555
Zn28_1 Zn28_5 2.805967 1_455
Zn28_1 Zn8_1 3.134325 1_555
Zn28_2 Zn48_2 2.687722 1_555
Zn28_2 Zn41_2 2.693300 1_555
Zn28_2 Zn28_6 2.805967 1_555
Zn28_2 Zn28_6 2.805967 1_455
Zn28_2 Zn8_2 3.134325 1_555
Zn28_3 Zn48_3 2.687722 1_555
Zn28_3 Zn41_3 2.693300 1_555
Zn28_3 Zn28_7 2.805967 1_555
Zn28_3 Zn28_7 2.805967 1_455
Zn28_3 Zn8_3 3.134325 1_555
Zn28_4 Zn48_4 2.687722 1_555
Zn28_4 Zn41_4 2.693300 1_555
Zn28_4 Zn8_4 3.134325 1_555
Zn28_5 Zn48_5 2.687722 1_555
Zn28_5 Zn41_5 2.693300 1_555
Zn28_5 Zn8_5 3.134325 1_555
Zn28_6 Zn48_6 2.687722 1_555
Zn28_6 Zn41_6 2.693300 1_555
Zn28_6 Zn8_6 3.134325 1_555
Zn28_7 Zn48_7 2.687722 1_555
Zn28_7 Zn41_7 2.693300 1_555
Zn28_7 Zn8_7 3.134325 1_555
Zn29_0 Zn43_2 2.647668 1_555
Zn29_0 Zn9_0 2.691831 1_555
Zn29_0 Zn29_4 2.805967 1_555
Zn29_0 Zn29_4 2.805967 1_455
Zn29_1 Zn43_3 2.647668 1_555
Zn29_1 Zn9_1 2.691831 1_555
Zn29_1 Zn29_5 2.805967 1_555
Zn29_1 Zn29_5 2.805967 1_455
Zn29_2 Zn43_0 2.647668 1_565
Zn29_2 Zn9_2 2.691831 1_555
Zn29_2 Zn29_6 2.805967 1_555
Zn29_2 Zn29_6 2.805967 1_455
Zn29_3 Zn43_1 2.647668 1_565
Zn29_3 Zn9_3 2.691831 1_555
Zn29_3 Zn29_7 2.805967 1_555
Zn29_3 Zn29_7 2.805967 1_455
Zn29_4 Zn43_6 2.647668 1_555
Zn29_4 Zn9_4 2.691831 1_555
Zn29_5 Zn43_7 2.647668 1_555
Zn29_5 Zn9_5 2.691831 1_555
Zn29_6 Zn43_4 2.647668 1_565
Zn29_6 Zn9_6 2.691831 1_555
Zn29_7 Zn43_5 2.647668 1_565
Zn29_7 Zn9_7 2.691831 1_555
Zn30_0 Zn6_0 2.676574 1_555
Zn30_0 Zn44_0 2.692983 1_555
Zn30_0 Zn30_4 2.805967 1_555
Zn30_0 Zn30_4 2.805967 1_455
Zn30_1 Zn6_1 2.676574 1_555
Zn30_1 Zn44_1 2.692983 1_555
Zn30_1 Zn30_5 2.805967 1_555
Zn30_1 Zn30_5 2.805967 1_455
Zn30_2 Zn6_2 2.676574 1_555
Zn30_2 Zn44_2 2.692983 1_555
Zn30_2 Zn30_6 2.805967 1_555
Zn30_2 Zn30_6 2.805967 1_455
Zn30_3 Zn6_3 2.676574 1_555
Zn30_3 Zn44_3 2.692983 1_555
Zn30_3 Zn30_7 2.805967 1_555
Zn30_3 Zn30_7 2.805967 1_455
Zn30_4 Zn6_4 2.676574 1_555
Zn30_4 Zn44_4 2.692983 1_555
Zn30_5 Zn6_5 2.676574 1_555
Zn30_5 Zn44_5 2.692983 1_555
Zn30_6 Zn6_6 2.676574 1_555
Zn30_6 Zn44_6 2.692983 1_555
Zn30_7 Zn6_7 2.676574 1_555
Zn30_7 Zn44_7 2.692983 1_555
Zn31_0 Zn31_4 2.805967 1_555
Zn31_0 Zn31_4 2.805967 1_455
Zn31_0 Zn35_0 2.968919 1_555
Zn31_1 Zn31_5 2.805967 1_555
Zn31_1 Zn31_5 2.805967 1_455
Zn31_1 Zn35_1 2.968919 1_555
Zn31_2 Zn31_6 2.805967 1_555
Zn31_2 Zn31_6 2.805967 1_455
Zn31_2 Zn35_2 2.968919 1_555
Zn31_3 Zn31_7 2.805967 1_555
Zn31_3 Zn31_7 2.805967 1_455
Zn31_3 Zn35_3 2.968919 1_555
Zn31_4 Zn35_4 2.968919 1_555
Zn31_5 Zn35_5 2.968919 1_555
Zn31_6 Zn35_6 2.968919 1_555
Zn31_7 Zn35_7 2.968919 1_555
Zn32_0 Zn4_0 2.646473 1_555
Zn32_0 Zn32_4 2.805967 1_555
Zn32_0 Zn32_4 2.805967 1_455
Zn32_1 Zn4_1 2.646473 1_555
Zn32_1 Zn32_5 2.805967 1_555
Zn32_1 Zn32_5 2.805967 1_455
Zn32_2 Zn4_2 2.646473 1_555
Zn32_2 Zn32_6 2.805967 1_555
Zn32_2 Zn32_6 2.805967 1_455
Zn32_3 Zn4_3 2.646473 1_555
Zn32_3 Zn32_7 2.805967 1_555
Zn32_3 Zn32_7 2.805967 1_455
Zn32_4 Zn4_4 2.646473 1_555
Zn32_5 Zn4_5 2.646473 1_555
Zn32_6 Zn4_6 2.646473 1_555
Zn32_7 Zn4_7 2.646473 1_555
Zn33_0 Zn33_4 2.805967 1_555
Zn33_0 Zn33_4 2.805967 1_455
Zn33_1 Zn33_5 2.805967 1_555
Zn33_1 Zn33_5 2.805967 1_455
Zn33_2 Zn33_6 2.805967 1_555
Zn33_2 Zn33_6 2.805967 1_455
Zn33_3 Zn33_7 2.805967 1_555
Zn33_3 Zn33_7 2.805967 1_455
Zn34_0 Zn38_0 2.713710 1_555
Zn34_0 Zn37_0 2.772073 1_555
Zn34_0 Zn34_4 2.805967 1_555
Zn34_0 Zn34_4 2.805967 1_455
Zn34_1 Zn38_1 2.713710 1_555
Zn34_1 Zn37_1 2.772073 1_555
Zn34_1 Zn34_5 2.805967 1_555
Zn34_1 Zn34_5 2.805967 1_455
Zn34_2 Zn38_2 2.713710 1_555
Zn34_2 Zn37_2 2.772073 1_555
Zn34_2 Zn34_6 2.805967 1_555
Zn34_2 Zn34_6 2.805967 1_455
Zn34_3 Zn38_3 2.713710 1_555
Zn34_3 Zn37_3 2.772073 1_555
Zn34_3 Zn34_7 2.805967 1_555
Zn34_3 Zn34_7 2.805967 1_455
Zn34_4 Zn38_4 2.713710 1_555
Zn34_4 Zn37_4 2.772073 1_555
Zn34_5 Zn38_5 2.713710 1_555
Zn34_5 Zn37_5 2.772073 1_555
Zn34_6 Zn38_6 2.713710 1_555
Zn34_6 Zn37_6 2.772073 1_555
Zn34_7 Zn38_7 2.713710 1_555
Zn34_7 Zn37_7 2.772073 1_555
Zn35_0 Zn41_2 2.687722 1_545
Zn35_0 Zn48_0 2.693300 1_555
Zn35_0 Zn35_4 2.805967 1_555
Zn35_0 Zn35_4 2.805967 1_455
Zn35_1 Zn41_3 2.687722 1_545
Zn35_1 Zn48_1 2.693300 1_555
Zn35_1 Zn35_5 2.805967 1_555
Zn35_1 Zn35_5 2.805967 1_455
Zn35_2 Zn41_0 2.687722 1_555
Zn35_2 Zn48_2 2.693300 1_555
Zn35_2 Zn35_6 2.805967 1_555
Zn35_2 Zn35_6 2.805967 1_455
Zn35_3 Zn41_1 2.687722 1_555
Zn35_3 Zn48_3 2.693300 1_555
Zn35_3 Zn35_7 2.805967 1_555
Zn35_3 Zn35_7 2.805967 1_455
Zn35_4 Zn41_6 2.687722 1_545
Zn35_4 Zn48_4 2.693300 1_555
Zn35_5 Zn41_7 2.687722 1_545
Zn35_5 Zn48_5 2.693300 1_555
Zn35_6 Zn41_4 2.687722 1_555
Zn35_6 Zn48_6 2.693300 1_555
Zn35_7 Zn41_5 2.687722 1_555
Zn35_7 Zn48_7 2.693300 1_555
Zn36_0 Zn47_0 2.692983 1_555
Zn36_0 Zn42_2 2.705293 1_545
Zn36_0 Zn36_4 2.805967 1_555
Zn36_0 Zn36_4 2.805967 1_455
Zn36_1 Zn47_1 2.692983 1_555
Zn36_1 Zn42_3 2.705293 1_545
Zn36_1 Zn36_5 2.805967 1_555
Zn36_1 Zn36_5 2.805967 1_455
Zn36_2 Zn47_2 2.692983 1_555
Zn36_2 Zn42_0 2.705293 1_555
Zn36_2 Zn36_6 2.805967 1_555
Zn36_2 Zn36_6 2.805967 1_455
Zn36_3 Zn47_3 2.692983 1_555
Zn36_3 Zn42_1 2.705293 1_555
Zn36_3 Zn36_7 2.805967 1_555
Zn36_3 Zn36_7 2.805967 1_455
Zn36_4 Zn47_4 2.692983 1_555
Zn36_4 Zn42_6 2.705293 1_545
Zn36_5 Zn47_5 2.692983 1_555
Zn36_5 Zn42_7 2.705293 1_545
Zn36_6 Zn47_6 2.692983 1_555
Zn36_6 Zn42_4 2.705293 1_555
Zn36_7 Zn47_7 2.692983 1_555
Zn36_7 Zn42_5 2.705293 1_555
Zn37_0 Zn37_4 2.805967 1_555
Zn37_0 Zn37_4 2.805967 1_455
Zn37_0 Zn7_0 2.888459 1_555
Zn37_0 Zn39_0 2.925293 1_555
Zn37_1 Zn37_5 2.805967 1_555
Zn37_1 Zn37_5 2.805967 1_455
Zn37_1 Zn7_1 2.888459 1_555
Zn37_1 Zn39_1 2.925293 1_555
Zn37_2 Zn37_6 2.805967 1_555
Zn37_2 Zn37_6 2.805967 1_455
Zn37_2 Zn7_2 2.888459 1_555
Zn37_2 Zn39_2 2.925293 1_555
Zn37_3 Zn37_7 2.805967 1_555
Zn37_3 Zn37_7 2.805967 1_455
Zn37_3 Zn7_3 2.888459 1_555
Zn37_3 Zn39_3 2.925293 1_555
Zn37_4 Zn7_4 2.888459 1_555
Zn37_4 Zn39_4 2.925293 1_555
Zn37_5 Zn7_5 2.888459 1_555
Zn37_5 Zn39_5 2.925293 1_555
Zn37_6 Zn7_6 2.888459 1_555
Zn37_6 Zn39_6 2.925293 1_555
Zn37_7 Zn7_7 2.888459 1_555
Zn37_7 Zn39_7 2.925293 1_555
Zn38_0 Zn9_0 2.700081 1_555
Zn38_0 Zn38_4 2.805967 1_555
Zn38_0 Zn38_4 2.805967 1_455
Zn38_1 Zn9_1 2.700081 1_555
Zn38_1 Zn38_5 2.805967 1_555
Zn38_1 Zn38_5 2.805967 1_455
Zn38_2 Zn9_2 2.700081 1_555
Zn38_2 Zn38_6 2.805967 1_555
Zn38_2 Zn38_6 2.805967 1_455
Zn38_3 Zn9_3 2.700081 1_555
Zn38_3 Zn38_7 2.805967 1_555
Zn38_3 Zn38_7 2.805967 1_455
Zn38_4 Zn9_4 2.700081 1_555
Zn38_5 Zn9_5 2.700081 1_555
Zn38_6 Zn9_6 2.700081 1_555
Zn38_7 Zn9_7 2.700081 1_555
Zn39_0 Zn39_4 2.805967 1_555
Zn39_0 Zn39_4 2.805967 1_455
Zn39_1 Zn39_5 2.805967 1_555
Zn39_1 Zn39_5 2.805967 1_455
Zn39_2 Zn39_6 2.805967 1_555
Zn39_2 Zn39_6 2.805967 1_455
Zn39_3 Zn39_7 2.805967 1_555
Zn39_3 Zn39_7 2.805967 1_455
Zn40_0 Zn5_2 2.655448 1_555
Zn40_0 Zn40_4 2.805967 1_555
Zn40_0 Zn40_4 2.805967 1_455
Zn40_1 Zn5_3 2.655448 1_555
Zn40_1 Zn40_5 2.805967 1_555
Zn40_1 Zn40_5 2.805967 1_455
Zn40_2 Zn5_0 2.655448 1_565
Zn40_2 Zn40_6 2.805967 1_555
Zn40_2 Zn40_6 2.805967 1_455
Zn40_3 Zn5_1 2.655448 1_565
Zn40_3 Zn40_7 2.805967 1_555
Zn40_3 Zn40_7 2.805967 1_455
Zn40_4 Zn5_6 2.655448 1_555
Zn40_5 Zn5_7 2.655448 1_555
Zn40_6 Zn5_4 2.655448 1_565
Zn40_7 Zn5_5 2.655448 1_565
Zn41_0 Zn41_4 2.805967 1_555
Zn41_0 Zn41_4 2.805967 1_455
Zn41_1 Zn41_5 2.805967 1_555
Zn41_1 Zn41_5 2.805967 1_455
Zn41_2 Zn41_6 2.805967 1_555
Zn41_2 Zn41_6 2.805967 1_455
Zn41_3 Zn41_7 2.805967 1_555
Zn41_3 Zn41_7 2.805967 1_455
Zn42_0 Zn42_4 2.805967 1_555
Zn42_0 Zn42_4 2.805967 1_455
Zn42_0 Zn46_1 2.973358 1_555
Zn42_1 Zn42_5 2.805967 1_555
Zn42_1 Zn42_5 2.805967 1_455
Zn42_1 Zn46_0 2.973358 1_556
Zn42_2 Zn42_6 2.805967 1_555
Zn42_2 Zn42_6 2.805967 1_455
Zn42_2 Zn46_3 2.973358 1_555
Zn42_3 Zn42_7 2.805967 1_555
Zn42_3 Zn42_7 2.805967 1_455
Zn42_3 Zn46_2 2.973358 1_556
Zn42_4 Zn46_5 2.973358 1_555
Zn42_5 Zn46_4 2.973358 1_556
Zn42_6 Zn46_7 2.973358 1_555
Zn42_7 Zn46_6 2.973358 1_556
Zn43_0 Zn43_4 2.805967 1_555
Zn43_0 Zn43_4 2.805967 1_455
Zn43_1 Zn43_5 2.805967 1_555
Zn43_1 Zn43_5 2.805967 1_455
Zn43_2 Zn43_6 2.805967 1_555
Zn43_2 Zn43_6 2.805967 1_455
Zn43_3 Zn43_7 2.805967 1_555
Zn43_3 Zn43_7 2.805967 1_455
Zn44_0 Zn46_2 2.705293 1_545
Zn44_0 Zn44_4 2.805967 1_555
Zn44_0 Zn44_4 2.805967 1_455
Zn44_1 Zn46_3 2.705293 1_545
Zn44_1 Zn44_5 2.805967 1_555
Zn44_1 Zn44_5 2.805967 1_455
Zn44_2 Zn46_0 2.705293 1_555
Zn44_2 Zn44_6 2.805967 1_555
Zn44_2 Zn44_6 2.805967 1_455
Zn44_3 Zn46_1 2.705293 1_555
Zn44_3 Zn44_7 2.805967 1_555
Zn44_3 Zn44_7 2.805967 1_455
Zn44_4 Zn46_6 2.705293 1_545
Zn44_5 Zn46_7 2.705293 1_545
Zn44_6 Zn46_4 2.705293 1_555
Zn44_7 Zn46_5 2.705293 1_555
Zn45_0 Zn5_0 2.718205 1_555
Zn45_0 Zn45_4 2.805967 1_555
Zn45_0 Zn45_4 2.805967 1_455
Zn45_1 Zn5_1 2.718205 1_555
Zn45_1 Zn45_5 2.805967 1_555
Zn45_1 Zn45_5 2.805967 1_455
Zn45_2 Zn5_2 2.718205 1_555
Zn45_2 Zn45_6 2.805967 1_555
Zn45_2 Zn45_6 2.805967 1_455
Zn45_3 Zn5_3 2.718205 1_555
Zn45_3 Zn45_7 2.805967 1_555
Zn45_3 Zn45_7 2.805967 1_455
Zn45_4 Zn5_4 2.718205 1_555
Zn45_5 Zn5_5 2.718205 1_555
Zn45_6 Zn5_6 2.718205 1_555
Zn45_7 Zn5_7 2.718205 1_555
Zn46_0 Zn6_0 2.689373 1_555
Zn46_0 Zn46_4 2.805967 1_555
Zn46_0 Zn46_4 2.805967 1_455
Zn46_1 Zn6_1 2.689373 1_555
Zn46_1 Zn46_5 2.805967 1_555
Zn46_1 Zn46_5 2.805967 1_455
Zn46_2 Zn6_2 2.689373 1_555
Zn46_2 Zn46_6 2.805967 1_555
Zn46_2 Zn46_6 2.805967 1_455
Zn46_3 Zn6_3 2.689373 1_555
Zn46_3 Zn46_7 2.805967 1_555
Zn46_3 Zn46_7 2.805967 1_455
Zn46_4 Zn6_4 2.689373 1_555
Zn46_5 Zn6_5 2.689373 1_555
Zn46_6 Zn6_6 2.689373 1_555
Zn46_7 Zn6_7 2.689373 1_555
Zn47_0 Zn47_4 2.805967 1_555
Zn47_0 Zn47_4 2.805967 1_455
Zn47_1 Zn47_5 2.805967 1_555
Zn47_1 Zn47_5 2.805967 1_455
Zn47_2 Zn47_6 2.805967 1_555
Zn47_2 Zn47_6 2.805967 1_455
Zn47_3 Zn47_7 2.805967 1_555
Zn47_3 Zn47_7 2.805967 1_455
Zn48_0 Zn8_2 2.699202 1_545
Zn48_0 Zn48_4 2.805967 1_555
Zn48_0 Zn48_4 2.805967 1_455
Zn48_1 Zn8_3 2.699202 1_545
Zn48_1 Zn48_5 2.805967 1_555
Zn48_1 Zn48_5 2.805967 1_455
Zn48_2 Zn8_0 2.699202 1_555
Zn48_2 Zn48_6 2.805967 1_555
Zn48_2 Zn48_6 2.805967 1_455
Zn48_3 Zn8_1 2.699202 1_555
Zn48_3 Zn48_7 2.805967 1_555
Zn48_3 Zn48_7 2.805967 1_455
Zn48_4 Zn8_6 2.699202 1_545
Zn48_5 Zn8_7 2.699202 1_545
Zn48_6 Zn8_4 2.699202 1_555
Zn48_7 Zn8_5 2.699202 1_555
Pt0_0 Zn23_2 2.644422 1_555
Pt0_0 Zn23_6 2.644422 1_555
Pt0_0 Zn34_0 2.644919 1_555
Pt0_0 Zn34_4 2.644919 1_555
Pt0_0 Zn21_2 2.649162 1_555
Pt0_0 Zn21_6 2.649162 1_555
Pt0_0 Zn38_0 2.651890 1_555
Pt0_0 Zn38_4 2.651890 1_555
Pt0_0 Pt0_4 2.805967 1_555
Pt0_0 Pt0_4 2.805967 1_455
Pt0_1 Zn23_3 2.644422 1_555
Pt0_1 Zn23_7 2.644422 1_555
Pt0_1 Zn34_1 2.644919 1_555
Pt0_1 Zn34_5 2.644919 1_555
Pt0_1 Zn21_7 2.649162 1_555
Pt0_1 Zn21_3 2.649162 1_555
Pt0_1 Zn38_1 2.651890 1_555
Pt0_1 Zn38_5 2.651890 1_555
Pt0_1 Pt0_5 2.805967 1_555
Pt0_1 Pt0_5 2.805967 1_455
Pt0_2 Zn23_0 2.644422 1_565
Pt0_2 Zn23_4 2.644422 1_565
Pt0_2 Zn34_6 2.644919 1_555
Pt0_2 Zn34_2 2.644919 1_555
Pt0_2 Zn21_4 2.649162 1_565
Pt0_2 Zn21_0 2.649162 1_565
Pt0_2 Zn38_2 2.651890 1_555
Pt0_2 Zn38_6 2.651890 1_555
Pt0_2 Pt0_6 2.805967 1_555
Pt0_2 Pt0_6 2.805967 1_455
Pt0_3 Zn23_5 2.644422 1_565
Pt0_3 Zn23_1 2.644422 1_565
Pt0_3 Zn34_3 2.644919 1_555
Pt0_3 Zn34_7 2.644919 1_555
Pt0_3 Zn21_1 2.649162 1_565
Pt0_3 Zn21_5 2.649162 1_565
Pt0_3 Zn38_3 2.651890 1_555
Pt0_3 Zn38_7 2.651890 1_555
Pt0_3 Pt0_7 2.805967 1_555
Pt0_3 Pt0_7 2.805967 1_455
Pt0_4 Zn23_6 2.644422 1_555
Pt0_4 Zn23_2 2.644422 1_655
Pt0_4 Zn34_4 2.644919 1_555
Pt0_4 Zn34_0 2.644919 1_655
Pt0_4 Zn21_6 2.649162 1_555
Pt0_4 Zn21_2 2.649162 1_655
Pt0_4 Zn38_4 2.651890 1_555
Pt0_4 Zn38_0 2.651890 1_655
Pt0_5 Zn23_7 2.644422 1_555
Pt0_5 Zn23_3 2.644422 1_655
Pt0_5 Zn34_5 2.644919 1_555
Pt0_5 Zn34_1 2.644919 1_655
Pt0_5 Zn21_7 2.649162 1_555
Pt0_5 Zn21_3 2.649162 1_655
Pt0_5 Zn38_5 2.651890 1_555
Pt0_5 Zn38_1 2.651890 1_655
Pt0_6 Zn23_4 2.644422 1_565
Pt0_6 Zn23_0 2.644422 1_665
Pt0_6 Zn34_6 2.644919 1_555
Pt0_6 Zn34_2 2.644919 1_655
Pt0_6 Zn21_4 2.649162 1_565
Pt0_6 Zn21_0 2.649162 1_665
Pt0_6 Zn38_6 2.651890 1_555
Pt0_6 Zn38_2 2.651890 1_655
Pt0_7 Zn23_5 2.644422 1_565
Pt0_7 Zn23_1 2.644422 1_665
Pt0_7 Zn34_7 2.644919 1_555
Pt0_7 Zn34_3 2.644919 1_655
Pt0_7 Zn21_5 2.649162 1_565
Pt0_7 Zn21_1 2.649162 1_665
Pt0_7 Zn38_7 2.651890 1_555
Pt0_7 Zn38_3 2.651890 1_655
Pt1_0 Zn15_0 2.654412 1_555
Pt1_0 Zn15_4 2.654412 1_555
Pt1_0 Zn29_4 2.682350 1_555
Pt1_0 Zn29_0 2.682350 1_555
Pt1_0 Zn8_0 2.686155 1_555
Pt1_0 Zn8_4 2.686155 1_555
Pt1_0 Zn27_6 2.703560 1_555
Pt1_0 Zn27_2 2.703560 1_555
Pt1_0 Pt1_4 2.805967 1_555
Pt1_0 Pt1_4 2.805967 1_455
Pt1_0 Zn43_2 2.939151 1_555
Pt1_0 Zn43_6 2.939151 1_555
Pt1_1 Zn15_1 2.654412 1_555
Pt1_1 Zn15_5 2.654412 1_555
Pt1_1 Zn29_1 2.682350 1_555
Pt1_1 Zn29_5 2.682350 1_555
Pt1_1 Zn8_5 2.686155 1_555
Pt1_1 Zn8_1 2.686155 1_555
Pt1_1 Zn27_3 2.703560 1_555
Pt1_1 Zn27_7 2.703560 1_555
Pt1_1 Pt1_5 2.805967 1_555
Pt1_1 Pt1_5 2.805967 1_455
Pt1_1 Zn43_3 2.939151 1_555
Pt1_1 Zn43_7 2.939151 1_555
Pt1_2 Zn15_6 2.654412 1_555
Pt1_2 Zn15_2 2.654412 1_555
Pt1_2 Zn29_6 2.682350 1_555
Pt1_2 Zn29_2 2.682350 1_555
Pt1_2 Zn8_6 2.686155 1_555
Pt1_2 Zn8_2 2.686155 1_555
Pt1_2 Zn27_0 2.703560 1_565
Pt1_2 Zn27_4 2.703560 1_565
Pt1_2 Pt1_6 2.805967 1_555
Pt1_2 Pt1_6 2.805967 1_455
Pt1_2 Zn43_4 2.939151 1_565
Pt1_2 Zn43_0 2.939151 1_565
Pt1_3 Zn15_3 2.654412 1_555
Pt1_3 Zn15_7 2.654412 1_555
Pt1_3 Zn29_3 2.682350 1_555
Pt1_3 Zn29_7 2.682350 1_555
Pt1_3 Zn8_3 2.686155 1_555
Pt1_3 Zn8_7 2.686155 1_555
Pt1_3 Zn27_1 2.703560 1_565
Pt1_3 Zn27_5 2.703560 1_565
Pt1_3 Pt1_7 2.805967 1_555
Pt1_3 Pt1_7 2.805967 1_455
Pt1_3 Zn43_1 2.939151 1_565
Pt1_3 Zn43_5 2.939151 1_565
Pt1_4 Zn15_4 2.654412 1_555
Pt1_4 Zn15_0 2.654412 1_655
Pt1_4 Zn29_4 2.682350 1_555
Pt1_4 Zn29_0 2.682350 1_655
Pt1_4 Zn8_4 2.686155 1_555
Pt1_4 Zn8_0 2.686155 1_655
Pt1_4 Zn27_2 2.703560 1_655
Pt1_4 Zn27_6 2.703560 1_555
Pt1_4 Zn43_6 2.939151 1_555
Pt1_4 Zn43_2 2.939151 1_655
Pt1_5 Zn15_5 2.654412 1_555
Pt1_5 Zn15_1 2.654412 1_655
Pt1_5 Zn29_5 2.682350 1_555
Pt1_5 Zn29_1 2.682350 1_655
Pt1_5 Zn8_5 2.686155 1_555
Pt1_5 Zn8_1 2.686155 1_655
Pt1_5 Zn27_7 2.703560 1_555
Pt1_5 Zn27_3 2.703560 1_655
Pt1_5 Zn43_7 2.939151 1_555
Pt1_5 Zn43_3 2.939151 1_655
Pt1_6 Zn15_6 2.654412 1_555
Pt1_6 Zn15_2 2.654412 1_655
Pt1_6 Zn29_6 2.682350 1_555
Pt1_6 Zn29_2 2.682350 1_655
Pt1_6 Zn8_6 2.686155 1_555
Pt1_6 Zn8_2 2.686155 1_655
Pt1_6 Zn27_4 2.703560 1_565
Pt1_6 Zn27_0 2.703560 1_665
Pt1_6 Zn43_0 2.939151 1_665
Pt1_6 Zn43_4 2.939151 1_565
Pt1_7 Zn15_7 2.654412 1_555
Pt1_7 Zn15_3 2.654412 1_655
Pt1_7 Zn29_7 2.682350 1_555
Pt1_7 Zn29_3 2.682350 1_655
Pt1_7 Zn8_7 2.686155 1_555
Pt1_7 Zn8_3 2.686155 1_655
Pt1_7 Zn27_5 2.703560 1_565
Pt1_7 Zn27_1 2.703560 1_665
Pt1_7 Zn43_5 2.939151 1_565
Pt1_7 Zn43_1 2.939151 1_665
Pt2_0 Zn37_4 2.639699 1_555
Pt2_0 Zn37_0 2.639699 1_555
Pt2_0 Zn21_6 2.693143 1_555
Pt2_0 Zn21_2 2.693143 1_555
Pt2_0 Zn7_0 2.703525 1_555
Pt2_0 Zn7_4 2.703525 1_555
Pt2_0 Zn13_2 2.727825 1_555
Pt2_0 Zn13_6 2.727825 1_555
Pt2_0 Pt2_4 2.805967 1_555
Pt2_0 Pt2_4 2.805967 1_455
Pt2_0 Zn39_6 2.891080 1_555
Pt2_0 Zn39_2 2.891080 1_555
Pt2_1 Zn37_5 2.639699 1_555
Pt2_1 Zn37_1 2.639699 1_555
Pt2_1 Zn21_3 2.693143 1_555
Pt2_1 Zn21_7 2.693143 1_555
Pt2_1 Zn7_1 2.703525 1_555
Pt2_1 Zn7_5 2.703525 1_555
Pt2_1 Zn13_7 2.727825 1_555
Pt2_1 Zn13_3 2.727825 1_555
Pt2_1 Pt2_5 2.805967 1_555
Pt2_1 Pt2_5 2.805967 1_455
Pt2_1 Zn39_3 2.891080 1_555
Pt2_1 Zn39_7 2.891080 1_555
Pt2_2 Zn37_6 2.639699 1_555
Pt2_2 Zn37_2 2.639699 1_555
Pt2_2 Zn21_0 2.693143 1_565
Pt2_2 Zn21_4 2.693143 1_565
Pt2_2 Zn7_2 2.703525 1_555
Pt2_2 Zn7_6 2.703525 1_555
Pt2_2 Zn13_0 2.727825 1_565
Pt2_2 Zn13_4 2.727825 1_565
Pt2_2 Pt2_6 2.805967 1_555
Pt2_2 Pt2_6 2.805967 1_455
Pt2_2 Zn39_0 2.891080 1_565
Pt2_2 Zn39_4 2.891080 1_565
Pt2_3 Zn37_3 2.639699 1_555
Pt2_3 Zn37_7 2.639699 1_555
Pt2_3 Zn21_1 2.693143 1_565
Pt2_3 Zn21_5 2.693143 1_565
Pt2_3 Zn7_7 2.703525 1_555
Pt2_3 Zn7_3 2.703525 1_555
Pt2_3 Zn13_5 2.727825 1_565
Pt2_3 Zn13_1 2.727825 1_565
Pt2_3 Pt2_7 2.805967 1_555
Pt2_3 Pt2_7 2.805967 1_455
Pt2_3 Zn39_1 2.891080 1_565
Pt2_3 Zn39_5 2.891080 1_565
Pt2_4 Zn37_4 2.639699 1_555
Pt2_4 Zn37_0 2.639699 1_655
Pt2_4 Zn21_6 2.693143 1_555
Pt2_4 Zn21_2 2.693143 1_655
Pt2_4 Zn7_4 2.703525 1_555
Pt2_4 Zn7_0 2.703525 1_655
Pt2_4 Zn13_6 2.727825 1_555
Pt2_4 Zn13_2 2.727825 1_655
Pt2_4 Zn39_6 2.891080 1_555
Pt2_4 Zn39_2 2.891080 1_655
Pt2_5 Zn37_5 2.639699 1_555
Pt2_5 Zn37_1 2.639699 1_655
Pt2_5 Zn21_7 2.693143 1_555
Pt2_5 Zn21_3 2.693143 1_655
Pt2_5 Zn7_5 2.703525 1_555
Pt2_5 Zn7_1 2.703525 1_655
Pt2_5 Zn13_7 2.727825 1_555
Pt2_5 Zn13_3 2.727825 1_655
Pt2_5 Zn39_7 2.891080 1_555
Pt2_5 Zn39_3 2.891080 1_655
Pt2_6 Zn37_6 2.639699 1_555
Pt2_6 Zn37_2 2.639699 1_655
Pt2_6 Zn21_4 2.693143 1_565
Pt2_6 Zn21_0 2.693143 1_665
Pt2_6 Zn7_6 2.703525 1_555
Pt2_6 Zn7_2 2.703525 1_655
Pt2_6 Zn13_4 2.727825 1_565
Pt2_6 Zn13_0 2.727825 1_665
Pt2_6 Zn39_0 2.891080 1_665
Pt2_6 Zn39_4 2.891080 1_565
Pt2_7 Zn37_7 2.639699 1_555
Pt2_7 Zn37_3 2.639699 1_655
Pt2_7 Zn21_5 2.693143 1_565
Pt2_7 Zn21_1 2.693143 1_665
Pt2_7 Zn7_7 2.703525 1_555
Pt2_7 Zn7_3 2.703525 1_655
Pt2_7 Zn13_5 2.727825 1_565
Pt2_7 Zn13_1 2.727825 1_665
Pt2_7 Zn39_5 2.891080 1_565
Pt2_7 Zn39_1 2.891080 1_665
Pt3_0 Zn35_0 2.656423 1_555
Pt3_0 Zn35_4 2.656423 1_555
Pt3_0 Zn48_4 2.665456 1_555
Pt3_0 Zn48_0 2.665456 1_555
Pt3_0 Zn41_0 2.666185 1_555
Pt3_0 Zn41_4 2.666185 1_555
Pt3_0 Zn19_0 2.674890 1_555
Pt3_0 Zn19_4 2.674890 1_555
Pt3_0 Pt3_4 2.805967 1_555
Pt3_0 Pt3_4 2.805967 1_455
Pt3_0 Zn28_0 3.124497 1_555
Pt3_0 Zn28_4 3.124497 1_555
Pt3_1 Zn35_1 2.656423 1_555
Pt3_1 Zn35_5 2.656423 1_555
Pt3_1 Zn48_1 2.665456 1_555
Pt3_1 Zn48_5 2.665456 1_555
Pt3_1 Zn41_1 2.666185 1_555
Pt3_1 Zn41_5 2.666185 1_555
Pt3_1 Zn19_5 2.674890 1_555
Pt3_1 Zn19_1 2.674890 1_555
Pt3_1 Pt3_5 2.805967 1_555
Pt3_1 Pt3_5 2.805967 1_455
Pt3_1 Zn28_5 3.124497 1_555
Pt3_1 Zn28_1 3.124497 1_555
Pt3_2 Zn35_2 2.656423 1_555
Pt3_2 Zn35_6 2.656423 1_555
Pt3_2 Zn48_2 2.665456 1_555
Pt3_2 Zn48_6 2.665456 1_555
Pt3_2 Zn41_2 2.666185 1_555
Pt3_2 Zn41_6 2.666185 1_555
Pt3_2 Zn19_6 2.674890 1_555
Pt3_2 Zn19_2 2.674890 1_555
Pt3_2 Pt3_6 2.805967 1_555
Pt3_2 Pt3_6 2.805967 1_455
Pt3_2 Zn28_6 3.124497 1_555
Pt3_2 Zn28_2 3.124497 1_555
Pt3_3 Zn35_3 2.656423 1_555
Pt3_3 Zn35_7 2.656423 1_555
Pt3_3 Zn48_3 2.665456 1_555
Pt3_3 Zn48_7 2.665456 1_555
Pt3_3 Zn41_7 2.666185 1_555
Pt3_3 Zn41_3 2.666185 1_555
Pt3_3 Zn19_7 2.674890 1_555
Pt3_3 Zn19_3 2.674890 1_555
Pt3_3 Pt3_7 2.805967 1_555
Pt3_3 Pt3_7 2.805967 1_455
Pt3_3 Zn28_3 3.124497 1_555
Pt3_3 Zn28_7 3.124497 1_555
Pt3_4 Zn35_4 2.656423 1_555
Pt3_4 Zn35_0 2.656423 1_655
Pt3_4 Zn48_4 2.665456 1_555
Pt3_4 Zn48_0 2.665456 1_655
Pt3_4 Zn41_4 2.666185 1_555
Pt3_4 Zn41_0 2.666185 1_655
Pt3_4 Zn19_4 2.674890 1_555
Pt3_4 Zn19_0 2.674890 1_655
Pt3_4 Zn28_4 3.124497 1_555
Pt3_4 Zn28_0 3.124497 1_655
Pt3_5 Zn35_5 2.656423 1_555
Pt3_5 Zn35_1 2.656423 1_655
Pt3_5 Zn48_5 2.665456 1_555
Pt3_5 Zn48_1 2.665456 1_655
Pt3_5 Zn41_5 2.666185 1_555
Pt3_5 Zn41_1 2.666185 1_655
Pt3_5 Zn19_5 2.674890 1_555
Pt3_5 Zn19_1 2.674890 1_655
Pt3_5 Zn28_5 3.124497 1_555
Pt3_5 Zn28_1 3.124497 1_655
Pt3_6 Zn35_6 2.656423 1_555
Pt3_6 Zn35_2 2.656423 1_655
Pt3_6 Zn48_2 2.665456 1_655
Pt3_6 Zn48_6 2.665456 1_555
Pt3_6 Zn41_6 2.666185 1_555
Pt3_6 Zn41_2 2.666185 1_655
Pt3_6 Zn19_6 2.674890 1_555
Pt3_6 Zn19_2 2.674890 1_655
Pt3_6 Zn28_6 3.124497 1_555
Pt3_6 Zn28_2 3.124497 1_655
Pt3_7 Zn35_7 2.656423 1_555
Pt3_7 Zn35_3 2.656423 1_655
Pt3_7 Zn48_7 2.665456 1_555
Pt3_7 Zn48_3 2.665456 1_655
Pt3_7 Zn41_7 2.666185 1_555
Pt3_7 Zn41_3 2.666185 1_655
Pt3_7 Zn19_7 2.674890 1_555
Pt3_7 Zn19_3 2.674890 1_655
Pt3_7 Zn28_7 3.124497 1_555
Pt3_7 Zn28_3 3.124497 1_655
Pt4_0 Zn42_0 2.655380 1_555
Pt4_0 Zn42_4 2.655380 1_555
Pt4_0 Zn10_0 2.668404 1_555
Pt4_0 Zn10_4 2.668404 1_555
Pt4_0 Zn18_5 2.675903 1_555
Pt4_0 Zn18_1 2.675903 1_555
Pt4_0 Zn36_4 2.677654 1_555
Pt4_0 Zn36_0 2.677654 1_555
Pt4_0 Pt4_4 2.805967 1_555
Pt4_0 Pt4_4 2.805967 1_455
Pt4_0 Zn47_0 3.051884 1_555
Pt4_0 Zn47_4 3.051884 1_555
Pt4_1 Zn42_1 2.655380 1_555
Pt4_1 Zn42_5 2.655380 1_555
Pt4_1 Zn10_5 2.668404 1_555
Pt4_1 Zn10_1 2.668404 1_555
Pt4_1 Zn18_4 2.675903 1_556
Pt4_1 Zn18_0 2.675903 1_556
Pt4_1 Zn36_1 2.677654 1_555
Pt4_1 Zn36_5 2.677654 1_555
Pt4_1 Pt4_5 2.805967 1_555
Pt4_1 Pt4_5 2.805967 1_455
Pt4_1 Zn47_1 3.051884 1_555
Pt4_1 Zn47_5 3.051884 1_555
Pt4_2 Zn42_2 2.655380 1_555
Pt4_2 Zn42_6 2.655380 1_555
Pt4_2 Zn10_2 2.668404 1_555
Pt4_2 Zn10_6 2.668404 1_555
Pt4_2 Zn18_3 2.675903 1_555
Pt4_2 Zn18_7 2.675903 1_555
Pt4_2 Zn36_2 2.677654 1_555
Pt4_2 Zn36_6 2.677654 1_555
Pt4_2 Pt4_6 2.805967 1_555
Pt4_2 Pt4_6 2.805967 1_455
Pt4_2 Zn47_6 3.051884 1_555
Pt4_2 Zn47_2 3.051884 1_555
Pt4_3 Zn42_3 2.655380 1_555
Pt4_3 Zn42_7 2.655380 1_555
Pt4_3 Zn10_3 2.668404 1_555
Pt4_3 Zn10_7 2.668404 1_555
Pt4_3 Zn18_2 2.675903 1_556
Pt4_3 Zn18_6 2.675903 1_556
Pt4_3 Zn36_3 2.677654 1_555
Pt4_3 Zn36_7 2.677654 1_555
Pt4_3 Pt4_7 2.805967 1_555
Pt4_3 Pt4_7 2.805967 1_455
Pt4_3 Zn47_3 3.051884 1_555
Pt4_3 Zn47_7 3.051884 1_555
Pt4_4 Zn42_4 2.655380 1_555
Pt4_4 Zn42_0 2.655380 1_655
Pt4_4 Zn10_0 2.668404 1_655
Pt4_4 Zn10_4 2.668404 1_555
Pt4_4 Zn18_5 2.675903 1_555
Pt4_4 Zn18_1 2.675903 1_655
Pt4_4 Zn36_4 2.677654 1_555
Pt4_4 Zn36_0 2.677654 1_655
Pt4_4 Zn47_0 3.051884 1_655
Pt4_4 Zn47_4 3.051884 1_555
Pt4_5 Zn42_5 2.655380 1_555
Pt4_5 Zn42_1 2.655380 1_655
Pt4_5 Zn10_5 2.668404 1_555
Pt4_5 Zn10_1 2.668404 1_655
Pt4_5 Zn18_4 2.675903 1_556
Pt4_5 Zn18_0 2.675903 1_656
Pt4_5 Zn36_5 2.677654 1_555
Pt4_5 Zn36_1 2.677654 1_655
Pt4_5 Zn47_5 3.051884 1_555
Pt4_5 Zn47_1 3.051884 1_655
Pt4_6 Zn42_6 2.655380 1_555
Pt4_6 Zn42_2 2.655380 1_655
Pt4_6 Zn10_6 2.668404 1_555
Pt4_6 Zn10_2 2.668404 1_655
Pt4_6 Zn18_7 2.675903 1_555
Pt4_6 Zn18_3 2.675903 1_655
Pt4_6 Zn36_6 2.677654 1_555
Pt4_6 Zn36_2 2.677654 1_655
Pt4_6 Zn47_6 3.051884 1_555
Pt4_6 Zn47_2 3.051884 1_655
Pt4_7 Zn42_7 2.655380 1_555
Pt4_7 Zn42_3 2.655380 1_655
Pt4_7 Zn10_7 2.668404 1_555
Pt4_7 Zn10_3 2.668404 1_655
Pt4_7 Zn18_6 2.675903 1_556
Pt4_7 Zn18_2 2.675903 1_656
Pt4_7 Zn36_7 2.677654 1_555
Pt4_7 Zn36_3 2.677654 1_655
Pt4_7 Zn47_7 3.051884 1_555
Pt4_7 Zn47_3 3.051884 1_655
Pt5_0 Zn47_2 2.655959 1_555
Pt5_0 Zn47_6 2.655959 1_555
Pt5_0 Zn36_2 2.656674 1_555
Pt5_0 Zn36_6 2.656674 1_555
Pt5_0 Zn10_0 2.657151 1_555
Pt5_0 Zn10_4 2.657151 1_555
Pt5_0 Zn25_4 2.667947 1_555
Pt5_0 Zn25_0 2.667947 1_555
Pt5_0 Pt5_4 2.805967 1_555
Pt5_0 Pt5_4 2.805967 1_455
Pt5_0 Zn42_0 3.212924 1_555
Pt5_0 Zn42_4 3.212924 1_555
Pt5_1 Zn47_3 2.655959 1_555
Pt5_1 Zn47_7 2.655959 1_555
Pt5_1 Zn36_3 2.656674 1_555
Pt5_1 Zn36_7 2.656674 1_555
Pt5_1 Zn10_1 2.657151 1_555
Pt5_1 Zn10_5 2.657151 1_555
Pt5_1 Zn25_5 2.667947 1_555
Pt5_1 Zn25_1 2.667947 1_555
Pt5_1 Pt5_5 2.805967 1_555
Pt5_1 Pt5_5 2.805967 1_455
Pt5_1 Zn42_5 3.212924 1_555
Pt5_1 Zn42_1 3.212924 1_555
Pt5_2 Zn47_0 2.655959 1_565
Pt5_2 Zn47_4 2.655959 1_565
Pt5_2 Zn36_4 2.656674 1_565
Pt5_2 Zn36_0 2.656674 1_565
Pt5_2 Zn10_2 2.657151 1_555
Pt5_2 Zn10_6 2.657151 1_555
Pt5_2 Zn25_2 2.667947 1_555
Pt5_2 Zn25_6 2.667947 1_555
Pt5_2 Pt5_6 2.805967 1_555
Pt5_2 Pt5_6 2.805967 1_455
Pt5_2 Zn42_2 3.212924 1_555
Pt5_2 Zn42_6 3.212924 1_555
Pt5_3 Zn47_5 2.655959 1_565
Pt5_3 Zn47_1 2.655959 1_565
Pt5_3 Zn36_1 2.656674 1_565
Pt5_3 Zn36_5 2.656674 1_565
Pt5_3 Zn10_7 2.657151 1_555
Pt5_3 Zn10_3 2.657151 1_555
Pt5_3 Zn25_3 2.667947 1_555
Pt5_3 Zn25_7 2.667947 1_555
Pt5_3 Pt5_7 2.805967 1_555
Pt5_3 Pt5_7 2.805967 1_455
Pt5_3 Zn42_7 3.212924 1_555
Pt5_3 Zn42_3 3.212924 1_555
Pt5_4 Zn47_6 2.655959 1_555
Pt5_4 Zn47_2 2.655959 1_655
Pt5_4 Zn36_6 2.656674 1_555
Pt5_4 Zn36_2 2.656674 1_655
Pt5_4 Zn10_4 2.657151 1_555
Pt5_4 Zn10_0 2.657151 1_655
Pt5_4 Zn25_4 2.667947 1_555
Pt5_4 Zn25_0 2.667947 1_655
Pt5_4 Zn42_4 3.212924 1_555
Pt5_4 Zn42_0 3.212924 1_655
Pt5_5 Zn47_7 2.655959 1_555
Pt5_5 Zn47_3 2.655959 1_655
Pt5_5 Zn36_7 2.656674 1_555
Pt5_5 Zn36_3 2.656674 1_655
Pt5_5 Zn10_5 2.657151 1_555
Pt5_5 Zn10_1 2.657151 1_655
Pt5_5 Zn25_5 2.667947 1_555
Pt5_5 Zn25_1 2.667947 1_655
Pt5_5 Zn42_5 3.212924 1_555
Pt5_5 Zn42_1 3.212924 1_655
Pt5_6 Zn47_4 2.655959 1_565
Pt5_6 Zn47_0 2.655959 1_665
Pt5_6 Zn36_4 2.656674 1_565
Pt5_6 Zn36_0 2.656674 1_665
Pt5_6 Zn10_6 2.657151 1_555
Pt5_6 Zn10_2 2.657151 1_655
Pt5_6 Zn25_6 2.667947 1_555
Pt5_6 Zn25_2 2.667947 1_655
Pt5_6 Zn42_6 3.212924 1_555
Pt5_6 Zn42_2 3.212924 1_655
Pt5_7 Zn47_1 2.655959 1_665
Pt5_7 Zn47_5 2.655959 1_565
Pt5_7 Zn36_5 2.656674 1_565
Pt5_7 Zn36_1 2.656674 1_665
Pt5_7 Zn10_7 2.657151 1_555
Pt5_7 Zn10_3 2.657151 1_655
Pt5_7 Zn25_7 2.667947 1_555
Pt5_7 Zn25_3 2.667947 1_655
Pt5_7 Zn42_7 3.212924 1_555
Pt5_7 Zn42_3 3.212924 1_655
Pt6_0 Zn4_0 2.644422 1_555
Pt6_0 Zn4_4 2.644422 1_555
Pt6_0 Zn32_6 2.644919 1_545
Pt6_0 Zn32_2 2.644919 1_545
Pt6_0 Zn3_0 2.649162 1_555
Pt6_0 Zn3_4 2.649162 1_555
Pt6_0 Zn20_0 2.651890 1_555
Pt6_0 Zn20_4 2.651890 1_555
Pt6_0 Pt6_4 2.805967 1_555
Pt6_0 Pt6_4 2.805967 1_455
Pt6_1 Zn4_1 2.644422 1_555
Pt6_1 Zn4_5 2.644422 1_555
Pt6_1 Zn32_3 2.644919 1_545
Pt6_1 Zn32_7 2.644919 1_545
Pt6_1 Zn3_1 2.649162 1_555
Pt6_1 Zn3_5 2.649162 1_555
Pt6_1 Zn20_1 2.651890 1_555
Pt6_1 Zn20_5 2.651890 1_555
Pt6_1 Pt6_5 2.805967 1_555
Pt6_1 Pt6_5 2.805967 1_455
Pt6_2 Zn4_2 2.644422 1_555
Pt6_2 Zn4_6 2.644422 1_555
Pt6_2 Zn32_0 2.644919 1_555
Pt6_2 Zn32_4 2.644919 1_555
Pt6_2 Zn3_2 2.649162 1_555
Pt6_2 Zn3_6 2.649162 1_555
Pt6_2 Zn20_2 2.651890 1_555
Pt6_2 Zn20_6 2.651890 1_555
Pt6_2 Pt6_6 2.805967 1_555
Pt6_2 Pt6_6 2.805967 1_455
Pt6_3 Zn4_7 2.644422 1_555
Pt6_3 Zn4_3 2.644422 1_555
Pt6_3 Zn32_1 2.644919 1_555
Pt6_3 Zn32_5 2.644919 1_555
Pt6_3 Zn3_7 2.649162 1_555
Pt6_3 Zn3_3 2.649162 1_555
Pt6_3 Zn20_3 2.651890 1_555
Pt6_3 Zn20_7 2.651890 1_555
Pt6_3 Pt6_7 2.805967 1_555
Pt6_3 Pt6_7 2.805967 1_455
Pt6_4 Zn4_4 2.644422 1_555
Pt6_4 Zn4_0 2.644422 1_655
Pt6_4 Zn32_6 2.644919 1_545
Pt6_4 Zn32_2 2.644919 1_645
Pt6_4 Zn3_4 2.649162 1_555
Pt6_4 Zn3_0 2.649162 1_655
Pt6_4 Zn20_4 2.651890 1_555
Pt6_4 Zn20_0 2.651890 1_655
Pt6_5 Zn4_5 2.644422 1_555
Pt6_5 Zn4_1 2.644422 1_655
Pt6_5 Zn32_7 2.644919 1_545
Pt6_5 Zn32_3 2.644919 1_645
Pt6_5 Zn3_5 2.649162 1_555
Pt6_5 Zn3_1 2.649162 1_655
Pt6_5 Zn20_5 2.651890 1_555
Pt6_5 Zn20_1 2.651890 1_655
Pt6_6 Zn4_6 2.644422 1_555
Pt6_6 Zn4_2 2.644422 1_655
Pt6_6 Zn32_4 2.644919 1_555
Pt6_6 Zn32_0 2.644919 1_655
Pt6_6 Zn3_6 2.649162 1_555
Pt6_6 Zn3_2 2.649162 1_655
Pt6_6 Zn20_6 2.651890 1_555
Pt6_6 Zn20_2 2.651890 1_655
Pt6_7 Zn4_7 2.644422 1_555
Pt6_7 Zn4_3 2.644422 1_655
Pt6_7 Zn32_5 2.644919 1_555
Pt6_7 Zn32_1 2.644919 1_655
Pt6_7 Zn3_7 2.649162 1_555
Pt6_7 Zn3_3 2.649162 1_655
Pt6_7 Zn20_7 2.651890 1_555
Pt6_7 Zn20_3 2.651890 1_655
Pt7_0 Zn1_0 2.634495 1_555
Pt7_0 Zn1_4 2.634495 1_555
Pt7_0 Zn20_0 2.686545 1_555
Pt7_0 Zn20_4 2.686545 1_555
Pt7_0 Zn33_0 2.711725 1_555
Pt7_0 Zn33_4 2.711725 1_555
Pt7_0 Zn22_0 2.716201 1_555
Pt7_0 Zn22_4 2.716201 1_555
Pt7_0 Pt7_4 2.805967 1_555
Pt7_0 Pt7_4 2.805967 1_455
Pt7_0 Zn26_6 2.885807 1_545
Pt7_0 Zn26_2 2.885807 1_545
Pt7_1 Zn1_1 2.634495 1_555
Pt7_1 Zn1_5 2.634495 1_555
Pt7_1 Zn20_1 2.686545 1_555
Pt7_1 Zn20_5 2.686545 1_555
Pt7_1 Zn33_1 2.711725 1_555
Pt7_1 Zn33_5 2.711725 1_555
Pt7_1 Zn22_1 2.716201 1_555
Pt7_1 Zn22_5 2.716201 1_555
Pt7_1 Pt7_5 2.805967 1_555
Pt7_1 Pt7_5 2.805967 1_455
Pt7_1 Zn26_7 2.885807 1_545
Pt7_1 Zn26_3 2.885807 1_545
Pt7_2 Zn1_2 2.634495 1_555
Pt7_2 Zn1_6 2.634495 1_555
Pt7_2 Zn20_2 2.686545 1_555
Pt7_2 Zn20_6 2.686545 1_555
Pt7_2 Zn33_6 2.711725 1_555
Pt7_2 Zn33_2 2.711725 1_555
Pt7_2 Zn22_6 2.716201 1_555
Pt7_2 Zn22_2 2.716201 1_555
Pt7_2 Pt7_6 2.805967 1_555
Pt7_2 Pt7_6 2.805967 1_455
Pt7_2 Zn26_0 2.885807 1_555
Pt7_2 Zn26_4 2.885807 1_555
Pt7_3 Zn1_3 2.634495 1_555
Pt7_3 Zn1_7 2.634495 1_555
Pt7_3 Zn20_3 2.686545 1_555
Pt7_3 Zn20_7 2.686545 1_555
Pt7_3 Zn33_3 2.711725 1_555
Pt7_3 Zn33_7 2.711725 1_555
Pt7_3 Zn22_3 2.716201 1_555
Pt7_3 Zn22_7 2.716201 1_555
Pt7_3 Pt7_7 2.805967 1_555
Pt7_3 Pt7_7 2.805967 1_455
Pt7_3 Zn26_1 2.885807 1_555
Pt7_3 Zn26_5 2.885807 1_555
Pt7_4 Zn1_4 2.634495 1_555
Pt7_4 Zn1_0 2.634495 1_655
Pt7_4 Zn20_4 2.686545 1_555
Pt7_4 Zn20_0 2.686545 1_655
Pt7_4 Zn33_4 2.711725 1_555
Pt7_4 Zn33_0 2.711725 1_655
Pt7_4 Zn22_4 2.716201 1_555
Pt7_4 Zn22_0 2.716201 1_655
Pt7_4 Zn26_6 2.885807 1_545
Pt7_4 Zn26_2 2.885807 1_645
Pt7_5 Zn1_5 2.634495 1_555
Pt7_5 Zn1_1 2.634495 1_655
Pt7_5 Zn20_5 2.686545 1_555
Pt7_5 Zn20_1 2.686545 1_655
Pt7_5 Zn33_5 2.711725 1_555
Pt7_5 Zn33_1 2.711725 1_655
Pt7_5 Zn22_5 2.716201 1_555
Pt7_5 Zn22_1 2.716201 1_655
Pt7_5 Zn26_7 2.885807 1_545
Pt7_5 Zn26_3 2.885807 1_645
Pt7_6 Zn1_6 2.634495 1_555
Pt7_6 Zn1_2 2.634495 1_655
Pt7_6 Zn20_6 2.686545 1_555
Pt7_6 Zn20_2 2.686545 1_655
Pt7_6 Zn33_6 2.711725 1_555
Pt7_6 Zn33_2 2.711725 1_655
Pt7_6 Zn22_6 2.716201 1_555
Pt7_6 Zn22_2 2.716201 1_655
Pt7_6 Zn26_4 2.885807 1_555
Pt7_6 Zn26_0 2.885807 1_655
Pt7_7 Zn1_7 2.634495 1_555
Pt7_7 Zn1_3 2.634495 1_655
Pt7_7 Zn20_7 2.686545 1_555
Pt7_7 Zn20_3 2.686545 1_655
Pt7_7 Zn33_7 2.711725 1_555
Pt7_7 Zn33_3 2.711725 1_655
Pt7_7 Zn22_7 2.716201 1_555
Pt7_7 Zn22_3 2.716201 1_655
Pt7_7 Zn26_5 2.885807 1_555
Pt7_7 Zn26_1 2.885807 1_655
Pt8_0 Zn37_4 2.641900 1_555
Pt8_0 Zn37_0 2.641900 1_555
Pt8_0 Zn39_0 2.699962 1_555
Pt8_0 Zn39_4 2.699962 1_555
Pt8_0 Zn34_0 2.707698 1_555
Pt8_0 Zn34_4 2.707698 1_555
Pt8_0 Zn21_4 2.781481 1_555
Pt8_0 Zn21_0 2.781481 1_555
Pt8_0 Pt8_4 2.805967 1_555
Pt8_0 Pt8_4 2.805967 1_455
Pt8_0 Zn23_4 2.819384 1_555
Pt8_0 Zn23_0 2.819384 1_555
Pt8_1 Zn37_1 2.641900 1_555
Pt8_1 Zn37_5 2.641900 1_555
Pt8_1 Zn39_5 2.699962 1_555
Pt8_1 Zn39_1 2.699962 1_555
Pt8_1 Zn34_1 2.707698 1_555
Pt8_1 Zn34_5 2.707698 1_555
Pt8_1 Zn21_5 2.781481 1_555
Pt8_1 Zn21_1 2.781481 1_555
Pt8_1 Pt8_5 2.805967 1_555
Pt8_1 Pt8_5 2.805967 1_455
Pt8_1 Zn23_1 2.819384 1_555
Pt8_1 Zn23_5 2.819384 1_555
Pt8_2 Zn37_6 2.641900 1_555
Pt8_2 Zn37_2 2.641900 1_555
Pt8_2 Zn39_6 2.699962 1_555
Pt8_2 Zn39_2 2.699962 1_555
Pt8_2 Zn34_6 2.707698 1_555
Pt8_2 Zn34_2 2.707698 1_555
Pt8_2 Zn21_2 2.781481 1_555
Pt8_2 Zn21_6 2.781481 1_555
Pt8_2 Pt8_6 2.805967 1_555
Pt8_2 Pt8_6 2.805967 1_455
Pt8_2 Zn23_6 2.819384 1_555
Pt8_2 Zn23_2 2.819384 1_555
Pt8_3 Zn37_3 2.641900 1_555
Pt8_3 Zn37_7 2.641900 1_555
Pt8_3 Zn39_3 2.699962 1_555
Pt8_3 Zn39_7 2.699962 1_555
Pt8_3 Zn34_3 2.707698 1_555
Pt8_3 Zn34_7 2.707698 1_555
Pt8_3 Zn21_3 2.781481 1_555
Pt8_3 Zn21_7 2.781481 1_555
Pt8_3 Pt8_7 2.805967 1_555
Pt8_3 Pt8_7 2.805967 1_455
Pt8_3 Zn23_7 2.819384 1_555
Pt8_3 Zn23_3 2.819384 1_555
Pt8_4 Zn37_4 2.641900 1_555
Pt8_4 Zn37_0 2.641900 1_655
Pt8_4 Zn39_4 2.699962 1_555
Pt8_4 Zn39_0 2.699962 1_655
Pt8_4 Zn34_4 2.707698 1_555
Pt8_4 Zn34_0 2.707698 1_655
Pt8_4 Zn21_4 2.781481 1_555
Pt8_4 Zn21_0 2.781481 1_655
Pt8_4 Zn23_4 2.819384 1_555
Pt8_4 Zn23_0 2.819384 1_655
Pt8_5 Zn37_5 2.641900 1_555
Pt8_5 Zn37_1 2.641900 1_655
Pt8_5 Zn39_5 2.699962 1_555
Pt8_5 Zn39_1 2.699962 1_655
Pt8_5 Zn34_5 2.707698 1_555
Pt8_5 Zn34_1 2.707698 1_655
Pt8_5 Zn21_5 2.781481 1_555
Pt8_5 Zn21_1 2.781481 1_655
Pt8_5 Zn23_5 2.819384 1_555
Pt8_5 Zn23_1 2.819384 1_655
Pt8_6 Zn37_6 2.641900 1_555
Pt8_6 Zn37_2 2.641900 1_655
Pt8_6 Zn39_6 2.699962 1_555
Pt8_6 Zn39_2 2.699962 1_655
Pt8_6 Zn34_6 2.707698 1_555
Pt8_6 Zn34_2 2.707698 1_655
Pt8_6 Zn21_6 2.781481 1_555
Pt8_6 Zn21_2 2.781481 1_655
Pt8_6 Zn23_6 2.819384 1_555
Pt8_6 Zn23_2 2.819384 1_655
Pt8_7 Zn37_7 2.641900 1_555
Pt8_7 Zn37_3 2.641900 1_655
Pt8_7 Zn39_7 2.699962 1_555
Pt8_7 Zn39_3 2.699962 1_655
Pt8_7 Zn34_7 2.707698 1_555
Pt8_7 Zn34_3 2.707698 1_655
Pt8_7 Zn21_7 2.781481 1_555
Pt8_7 Zn21_3 2.781481 1_655
Pt8_7 Zn23_7 2.819384 1_555
Pt8_7 Zn23_3 2.819384 1_655
Pt9_0 Zn24_0 2.637028 1_555
Pt9_0 Zn24_4 2.637028 1_555
Pt9_0 Zn9_4 2.700980 1_555
Pt9_0 Zn9_0 2.700980 1_555
Pt9_0 Zn23_0 2.711524 1_555
Pt9_0 Zn23_4 2.711524 1_555
Pt9_0 Zn34_4 2.793342 1_555
Pt9_0 Zn34_0 2.793342 1_555
Pt9_0 Zn38_0 2.799590 1_555
Pt9_0 Zn38_4 2.799590 1_555
Pt9_0 Pt9_4 2.805967 1_555
Pt9_0 Pt9_4 2.805967 1_455
Pt9_1 Zn24_1 2.637028 1_555
Pt9_1 Zn24_5 2.637028 1_555
Pt9_1 Zn9_5 2.700980 1_555
Pt9_1 Zn9_1 2.700980 1_555
Pt9_1 Zn23_1 2.711524 1_555
Pt9_1 Zn23_5 2.711524 1_555
Pt9_1 Zn34_1 2.793342 1_555
Pt9_1 Zn34_5 2.793342 1_555
Pt9_1 Zn38_1 2.799590 1_555
Pt9_1 Zn38_5 2.799590 1_555
Pt9_1 Pt9_5 2.805967 1_555
Pt9_1 Pt9_5 2.805967 1_455
Pt9_2 Zn24_2 2.637028 1_555
Pt9_2 Zn24_6 2.637028 1_555
Pt9_2 Zn9_6 2.700980 1_555
Pt9_2 Zn9_2 2.700980 1_555
Pt9_2 Zn23_2 2.711524 1_555
Pt9_2 Zn23_6 2.711524 1_555
Pt9_2 Zn34_2 2.793342 1_555
Pt9_2 Zn34_6 2.793342 1_555
Pt9_2 Zn38_2 2.799590 1_555
Pt9_2 Zn38_6 2.799590 1_555
Pt9_2 Pt9_6 2.805967 1_555
Pt9_2 Pt9_6 2.805967 1_455
Pt9_3 Zn24_3 2.637028 1_555
Pt9_3 Zn24_7 2.637028 1_555
Pt9_3 Zn9_3 2.700980 1_555
Pt9_3 Zn9_7 2.700980 1_555
Pt9_3 Zn23_7 2.711524 1_555
Pt9_3 Zn23_3 2.711524 1_555
Pt9_3 Zn34_3 2.793342 1_555
Pt9_3 Zn34_7 2.793342 1_555
Pt9_3 Zn38_3 2.799590 1_555
Pt9_3 Zn38_7 2.799590 1_555
Pt9_3 Pt9_7 2.805967 1_555
Pt9_3 Pt9_7 2.805967 1_455
Pt9_4 Zn24_4 2.637028 1_555
Pt9_4 Zn24_0 2.637028 1_655
Pt9_4 Zn9_4 2.700980 1_555
Pt9_4 Zn9_0 2.700980 1_655
Pt9_4 Zn23_4 2.711524 1_555
Pt9_4 Zn23_0 2.711524 1_655
Pt9_4 Zn34_4 2.793342 1_555
Pt9_4 Zn34_0 2.793342 1_655
Pt9_4 Zn38_4 2.799590 1_555
Pt9_4 Zn38_0 2.799590 1_655
Pt9_5 Zn24_5 2.637028 1_555
Pt9_5 Zn24_1 2.637028 1_655
Pt9_5 Zn9_5 2.700980 1_555
Pt9_5 Zn9_1 2.700980 1_655
Pt9_5 Zn23_5 2.711524 1_555
Pt9_5 Zn23_1 2.711524 1_655
Pt9_5 Zn34_5 2.793342 1_555
Pt9_5 Zn34_1 2.793342 1_655
Pt9_5 Zn38_5 2.799590 1_555
Pt9_5 Zn38_1 2.799590 1_655
Pt9_6 Zn24_6 2.637028 1_555
Pt9_6 Zn24_2 2.637028 1_655
Pt9_6 Zn9_6 2.700980 1_555
Pt9_6 Zn9_2 2.700980 1_655
Pt9_6 Zn23_6 2.711524 1_555
Pt9_6 Zn23_2 2.711524 1_655
Pt9_6 Zn34_6 2.793342 1_555
Pt9_6 Zn34_2 2.793342 1_655
Pt9_6 Zn38_6 2.799590 1_555
Pt9_6 Zn38_2 2.799590 1_655
Pt9_7 Zn24_7 2.637028 1_555
Pt9_7 Zn24_3 2.637028 1_655
Pt9_7 Zn9_7 2.700980 1_555
Pt9_7 Zn9_3 2.700980 1_655
Pt9_7 Zn23_7 2.711524 1_555
Pt9_7 Zn23_3 2.711524 1_655
Pt9_7 Zn34_7 2.793342 1_555
Pt9_7 Zn34_3 2.793342 1_655
Pt9_7 Zn38_7 2.799590 1_555
Pt9_7 Zn38_3 2.799590 1_655
Pt10_0 Zn12_2 2.639699 1_545
Pt10_0 Zn12_6 2.639699 1_545
Pt10_0 Zn3_0 2.693143 1_555
Pt10_0 Zn3_4 2.693143 1_555
Pt10_0 Zn40_2 2.703525 1_545
Pt10_0 Zn40_6 2.703525 1_545
Pt10_0 Zn5_0 2.727825 1_555
Pt10_0 Zn5_4 2.727825 1_555
Pt10_0 Pt10_4 2.805967 1_555
Pt10_0 Pt10_4 2.805967 1_455
Pt10_0 Zn45_4 2.891080 1_555
Pt10_0 Zn45_0 2.891080 1_555
Pt10_1 Zn12_7 2.639699 1_545
Pt10_1 Zn12_3 2.639699 1_545
Pt10_1 Zn3_1 2.693143 1_555
Pt10_1 Zn3_5 2.693143 1_555
Pt10_1 Zn40_3 2.703525 1_545
Pt10_1 Zn40_7 2.703525 1_545
Pt10_1 Zn5_1 2.727825 1_555
Pt10_1 Zn5_5 2.727825 1_555
Pt10_1 Pt10_5 2.805967 1_555
Pt10_1 Pt10_5 2.805967 1_455
Pt10_1 Zn45_1 2.891080 1_555
Pt10_1 Zn45_5 2.891080 1_555
Pt10_2 Zn12_0 2.639699 1_555
Pt10_2 Zn12_4 2.639699 1_555
Pt10_2 Zn3_6 2.693143 1_555
Pt10_2 Zn3_2 2.693143 1_555
Pt10_2 Zn40_0 2.703525 1_555
Pt10_2 Zn40_4 2.703525 1_555
Pt10_2 Zn5_2 2.727825 1_555
Pt10_2 Zn5_6 2.727825 1_555
Pt10_2 Pt10_6 2.805967 1_555
Pt10_2 Pt10_6 2.805967 1_455
Pt10_2 Zn45_2 2.891080 1_555
Pt10_2 Zn45_6 2.891080 1_555
Pt10_3 Zn12_5 2.639699 1_555
Pt10_3 Zn12_1 2.639699 1_555
Pt10_3 Zn3_7 2.693143 1_555
Pt10_3 Zn3_3 2.693143 1_555
Pt10_3 Zn40_1 2.703525 1_555
Pt10_3 Zn40_5 2.703525 1_555
Pt10_3 Zn5_7 2.727825 1_555
Pt10_3 Zn5_3 2.727825 1_555
Pt10_3 Pt10_7 2.805967 1_555
Pt10_3 Pt10_7 2.805967 1_455
Pt10_3 Zn45_3 2.891080 1_555
Pt10_3 Zn45_7 2.891080 1_555
Pt10_4 Zn12_6 2.639699 1_545
Pt10_4 Zn12_2 2.639699 1_645
Pt10_4 Zn3_4 2.693143 1_555
Pt10_4 Zn3_0 2.693143 1_655
Pt10_4 Zn40_6 2.703525 1_545
Pt10_4 Zn40_2 2.703525 1_645
Pt10_4 Zn5_4 2.727825 1_555
Pt10_4 Zn5_0 2.727825 1_655
Pt10_4 Zn45_0 2.891080 1_655
Pt10_4 Zn45_4 2.891080 1_555
Pt10_5 Zn12_7 2.639699 1_545
Pt10_5 Zn12_3 2.639699 1_645
Pt10_5 Zn3_5 2.693143 1_555
Pt10_5 Zn3_1 2.693143 1_655
Pt10_5 Zn40_7 2.703525 1_545
Pt10_5 Zn40_3 2.703525 1_645
Pt10_5 Zn5_5 2.727825 1_555
Pt10_5 Zn5_1 2.727825 1_655
Pt10_5 Zn45_1 2.891080 1_655
Pt10_5 Zn45_5 2.891080 1_555
Pt10_6 Zn12_4 2.639699 1_555
Pt10_6 Zn12_0 2.639699 1_655
Pt10_6 Zn3_6 2.693143 1_555
Pt10_6 Zn3_2 2.693143 1_655
Pt10_6 Zn40_4 2.703525 1_555
Pt10_6 Zn40_0 2.703525 1_655
Pt10_6 Zn5_6 2.727825 1_555
Pt10_6 Zn5_2 2.727825 1_655
Pt10_6 Zn45_6 2.891080 1_555
Pt10_6 Zn45_2 2.891080 1_655
Pt10_7 Zn12_5 2.639699 1_555
Pt10_7 Zn12_1 2.639699 1_655
Pt10_7 Zn3_7 2.693143 1_555
Pt10_7 Zn3_3 2.693143 1_655
Pt10_7 Zn40_5 2.703525 1_555
Pt10_7 Zn40_1 2.703525 1_655
Pt10_7 Zn5_7 2.727825 1_555
Pt10_7 Zn5_3 2.727825 1_655
Pt10_7 Zn45_3 2.891080 1_655
Pt10_7 Zn45_7 2.891080 1_555
Pt11_0 Zn46_0 2.655380 1_555
Pt11_0 Zn46_4 2.655380 1_555
Pt11_0 Zn6_4 2.668404 1_555
Pt11_0 Zn6_0 2.668404 1_555
Pt11_0 Zn18_4 2.675903 1_555
Pt11_0 Zn18_0 2.675903 1_555
Pt11_0 Zn44_0 2.677654 1_555
Pt11_0 Zn44_4 2.677654 1_555
Pt11_0 Pt11_4 2.805967 1_555
Pt11_0 Pt11_4 2.805967 1_455
Pt11_0 Zn30_0 3.051884 1_555
Pt11_0 Zn30_4 3.051884 1_555
Pt11_1 Zn46_5 2.655380 1_555
Pt11_1 Zn46_1 2.655380 1_555
Pt11_1 Zn6_5 2.668404 1_555
Pt11_1 Zn6_1 2.668404 1_555
Pt11_1 Zn18_5 2.675903 1_555
Pt11_1 Zn18_1 2.675903 1_555
Pt11_1 Zn44_1 2.677654 1_555
Pt11_1 Zn44_5 2.677654 1_555
Pt11_1 Pt11_5 2.805967 1_555
Pt11_1 Pt11_5 2.805967 1_455
Pt11_1 Zn30_5 3.051884 1_555
Pt11_1 Zn30_1 3.051884 1_555
Pt11_2 Zn46_6 2.655380 1_555
Pt11_2 Zn46_2 2.655380 1_555
Pt11_2 Zn6_6 2.668404 1_555
Pt11_2 Zn6_2 2.668404 1_555
Pt11_2 Zn18_6 2.675903 1_555
Pt11_2 Zn18_2 2.675903 1_555
Pt11_2 Zn44_2 2.677654 1_555
Pt11_2 Zn44_6 2.677654 1_555
Pt11_2 Pt11_6 2.805967 1_555
Pt11_2 Pt11_6 2.805967 1_455
Pt11_2 Zn30_2 3.051884 1_555
Pt11_2 Zn30_6 3.051884 1_555
Pt11_3 Zn46_3 2.655380 1_555
Pt11_3 Zn46_7 2.655380 1_555
Pt11_3 Zn6_3 2.668404 1_555
Pt11_3 Zn6_7 2.668404 1_555
Pt11_3 Zn18_3 2.675903 1_555
Pt11_3 Zn18_7 2.675903 1_555
Pt11_3 Zn44_3 2.677654 1_555
Pt11_3 Zn44_7 2.677654 1_555
Pt11_3 Pt11_7 2.805967 1_555
Pt11_3 Pt11_7 2.805967 1_455
Pt11_3 Zn30_3 3.051884 1_555
Pt11_3 Zn30_7 3.051884 1_555
Pt11_4 Zn46_4 2.655380 1_555
Pt11_4 Zn46_0 2.655380 1_655
Pt11_4 Zn6_4 2.668404 1_555
Pt11_4 Zn6_0 2.668404 1_655
Pt11_4 Zn18_4 2.675903 1_555
Pt11_4 Zn18_0 2.675903 1_655
Pt11_4 Zn44_4 2.677654 1_555
Pt11_4 Zn44_0 2.677654 1_655
Pt11_4 Zn30_4 3.051884 1_555
Pt11_4 Zn30_0 3.051884 1_655
Pt11_5 Zn46_5 2.655380 1_555
Pt11_5 Zn46_1 2.655380 1_655
Pt11_5 Zn6_5 2.668404 1_555
Pt11_5 Zn6_1 2.668404 1_655
Pt11_5 Zn18_5 2.675903 1_555
Pt11_5 Zn18_1 2.675903 1_655
Pt11_5 Zn44_5 2.677654 1_555
Pt11_5 Zn44_1 2.677654 1_655
Pt11_5 Zn30_5 3.051884 1_555
Pt11_5 Zn30_1 3.051884 1_655
Pt11_6 Zn46_6 2.655380 1_555
Pt11_6 Zn46_2 2.655380 1_655
Pt11_6 Zn6_6 2.668404 1_555
Pt11_6 Zn6_2 2.668404 1_655
Pt11_6 Zn18_6 2.675903 1_555
Pt11_6 Zn18_2 2.675903 1_655
Pt11_6 Zn44_6 2.677654 1_555
Pt11_6 Zn44_2 2.677654 1_655
Pt11_6 Zn30_6 3.051884 1_555
Pt11_6 Zn30_2 3.051884 1_655
Pt11_7 Zn46_3 2.655380 1_655
Pt11_7 Zn46_7 2.655380 1_555
Pt11_7 Zn6_7 2.668404 1_555
Pt11_7 Zn6_3 2.668404 1_655
Pt11_7 Zn18_7 2.675903 1_555
Pt11_7 Zn18_3 2.675903 1_655
Pt11_7 Zn44_7 2.677654 1_555
Pt11_7 Zn44_3 2.677654 1_655
Pt11_7 Zn30_7 3.051884 1_555
Pt11_7 Zn30_3 3.051884 1_655
Pt12_0 Zn46_2 2.660453 1_545
Pt12_0 Zn46_6 2.660453 1_545
Pt12_0 Zn42_3 2.660453 1_544
Pt12_0 Zn42_7 2.660453 1_544
Pt12_0 Zn36_1 2.676491 1_554
Pt12_0 Zn36_5 2.676491 1_554
Pt12_0 Zn44_0 2.676491 1_555
Pt12_0 Zn44_4 2.676491 1_555
Pt12_0 Pt12_4 2.805967 1_555
Pt12_0 Pt12_4 2.805967 1_455
Pt12_0 Zn18_4 2.996882 1_555
Pt12_0 Zn18_0 2.996882 1_555
Pt12_1 Zn46_7 2.660453 1_545
Pt12_1 Zn46_3 2.660453 1_545
Pt12_1 Zn42_6 2.660453 1_545
Pt12_1 Zn42_2 2.660453 1_545
Pt12_1 Zn36_0 2.676491 1_555
Pt12_1 Zn36_4 2.676491 1_555
Pt12_1 Zn44_1 2.676491 1_555
Pt12_1 Zn44_5 2.676491 1_555
Pt12_1 Pt12_5 2.805967 1_555
Pt12_1 Pt12_5 2.805967 1_455
Pt12_1 Zn18_5 2.996882 1_555
Pt12_1 Zn18_1 2.996882 1_555
Pt12_2 Zn46_4 2.660453 1_555
Pt12_2 Zn46_0 2.660453 1_555
Pt12_2 Zn42_1 2.660453 1_554
Pt12_2 Zn42_5 2.660453 1_554
Pt12_2 Zn36_3 2.676491 1_554
Pt12_2 Zn36_7 2.676491 1_554
Pt12_2 Zn44_2 2.676491 1_555
Pt12_2 Zn44_6 2.676491 1_555
Pt12_2 Pt12_6 2.805967 1_555
Pt12_2 Pt12_6 2.805967 1_455
Pt12_2 Zn18_2 2.996882 1_555
Pt12_2 Zn18_6 2.996882 1_555
Pt12_3 Zn46_1 2.660453 1_555
Pt12_3 Zn46_5 2.660453 1_555
Pt12_3 Zn42_0 2.660453 1_555
Pt12_3 Zn42_4 2.660453 1_555
Pt12_3 Zn36_6 2.676491 1_555
Pt12_3 Zn36_2 2.676491 1_555
Pt12_3 Zn44_7 2.676491 1_555
Pt12_3 Zn44_3 2.676491 1_555
Pt12_3 Pt12_7 2.805967 1_555
Pt12_3 Pt12_7 2.805967 1_455
Pt12_3 Zn18_3 2.996882 1_555
Pt12_3 Zn18_7 2.996882 1_555
Pt12_4 Zn46_6 2.660453 1_545
Pt12_4 Zn46_2 2.660453 1_645
Pt12_4 Zn42_7 2.660453 1_544
Pt12_4 Zn42_3 2.660453 1_644
Pt12_4 Zn36_5 2.676491 1_554
Pt12_4 Zn36_1 2.676491 1_654
Pt12_4 Zn44_4 2.676491 1_555
Pt12_4 Zn44_0 2.676491 1_655
Pt12_4 Zn18_4 2.996882 1_555
Pt12_4 Zn18_0 2.996882 1_655
Pt12_5 Zn46_7 2.660453 1_545
Pt12_5 Zn46_3 2.660453 1_645
Pt12_5 Zn42_6 2.660453 1_545
Pt12_5 Zn42_2 2.660453 1_645
Pt12_5 Zn36_4 2.676491 1_555
Pt12_5 Zn36_0 2.676491 1_655
Pt12_5 Zn44_5 2.676491 1_555
Pt12_5 Zn44_1 2.676491 1_655
Pt12_5 Zn18_5 2.996882 1_555
Pt12_5 Zn18_1 2.996882 1_655
Pt12_6 Zn46_4 2.660453 1_555
Pt12_6 Zn46_0 2.660453 1_655
Pt12_6 Zn42_5 2.660453 1_554
Pt12_6 Zn42_1 2.660453 1_654
Pt12_6 Zn36_7 2.676491 1_554
Pt12_6 Zn36_3 2.676491 1_654
Pt12_6 Zn44_2 2.676491 1_655
Pt12_6 Zn44_6 2.676491 1_555
Pt12_6 Zn18_6 2.996882 1_555
Pt12_6 Zn18_2 2.996882 1_655
Pt12_7 Zn46_5 2.660453 1_555
Pt12_7 Zn46_1 2.660453 1_655
Pt12_7 Zn42_4 2.660453 1_555
Pt12_7 Zn42_0 2.660453 1_655
Pt12_7 Zn36_6 2.676491 1_555
Pt12_7 Zn36_2 2.676491 1_655
Pt12_7 Zn44_7 2.676491 1_555
Pt12_7 Zn44_3 2.676491 1_655
Pt12_7 Zn18_3 2.996882 1_655
Pt12_7 Zn18_7 2.996882 1_555
Pt13_0 Zn12_4 2.641900 1_555
Pt13_0 Zn12_0 2.641900 1_555
Pt13_0 Zn45_4 2.699962 1_555
Pt13_0 Zn45_0 2.699962 1_555
Pt13_0 Zn32_0 2.707698 1_555
Pt13_0 Zn32_4 2.707698 1_555
Pt13_0 Zn3_0 2.781481 1_555
Pt13_0 Zn3_4 2.781481 1_555
Pt13_0 Pt13_4 2.805967 1_555
Pt13_0 Pt13_4 2.805967 1_455
Pt13_0 Zn4_0 2.819384 1_555
Pt13_0 Zn4_4 2.819384 1_555
Pt13_1 Zn12_5 2.641900 1_555
Pt13_1 Zn12_1 2.641900 1_555
Pt13_1 Zn45_1 2.699962 1_555
Pt13_1 Zn45_5 2.699962 1_555
Pt13_1 Zn32_1 2.707698 1_555
Pt13_1 Zn32_5 2.707698 1_555
Pt13_1 Zn3_1 2.781481 1_555
Pt13_1 Zn3_5 2.781481 1_555
Pt13_1 Pt13_5 2.805967 1_555
Pt13_1 Pt13_5 2.805967 1_455
Pt13_1 Zn4_5 2.819384 1_555
Pt13_1 Zn4_1 2.819384 1_555
Pt13_2 Zn12_6 2.641900 1_555
Pt13_2 Zn12_2 2.641900 1_555
Pt13_2 Zn45_2 2.699962 1_555
Pt13_2 Zn45_6 2.699962 1_555
Pt13_2 Zn32_6 2.707698 1_555
Pt13_2 Zn32_2 2.707698 1_555
Pt13_2 Zn3_6 2.781481 1_555
Pt13_2 Zn3_2 2.781481 1_555
Pt13_2 Pt13_6 2.805967 1_555
Pt13_2 Pt13_6 2.805967 1_455
Pt13_2 Zn4_2 2.819384 1_555
Pt13_2 Zn4_6 2.819384 1_555
Pt13_3 Zn12_7 2.641900 1_555
Pt13_3 Zn12_3 2.641900 1_555
Pt13_3 Zn45_3 2.699962 1_555
Pt13_3 Zn45_7 2.699962 1_555
Pt13_3 Zn32_3 2.707698 1_555
Pt13_3 Zn32_7 2.707698 1_555
Pt13_3 Zn3_7 2.781481 1_555
Pt13_3 Zn3_3 2.781481 1_555
Pt13_3 Pt13_7 2.805967 1_555
Pt13_3 Pt13_7 2.805967 1_455
Pt13_3 Zn4_3 2.819384 1_555
Pt13_3 Zn4_7 2.819384 1_555
Pt13_4 Zn12_4 2.641900 1_555
Pt13_4 Zn12_0 2.641900 1_655
Pt13_4 Zn45_4 2.699962 1_555
Pt13_4 Zn45_0 2.699962 1_655
Pt13_4 Zn32_4 2.707698 1_555
Pt13_4 Zn32_0 2.707698 1_655
Pt13_4 Zn3_4 2.781481 1_555
Pt13_4 Zn3_0 2.781481 1_655
Pt13_4 Zn4_4 2.819384 1_555
Pt13_4 Zn4_0 2.819384 1_655
Pt13_5 Zn12_5 2.641900 1_555
Pt13_5 Zn12_1 2.641900 1_655
Pt13_5 Zn45_5 2.699962 1_555
Pt13_5 Zn45_1 2.699962 1_655
Pt13_5 Zn32_1 2.707698 1_655
Pt13_5 Zn32_5 2.707698 1_555
Pt13_5 Zn3_5 2.781481 1_555
Pt13_5 Zn3_1 2.781481 1_655
Pt13_5 Zn4_5 2.819384 1_555
Pt13_5 Zn4_1 2.819384 1_655
Pt13_6 Zn12_6 2.641900 1_555
Pt13_6 Zn12_2 2.641900 1_655
Pt13_6 Zn45_6 2.699962 1_555
Pt13_6 Zn45_2 2.699962 1_655
Pt13_6 Zn32_6 2.707698 1_555
Pt13_6 Zn32_2 2.707698 1_655
Pt13_6 Zn3_6 2.781481 1_555
Pt13_6 Zn3_2 2.781481 1_655
Pt13_6 Zn4_6 2.819384 1_555
Pt13_6 Zn4_2 2.819384 1_655
Pt13_7 Zn12_7 2.641900 1_555
Pt13_7 Zn12_3 2.641900 1_655
Pt13_7 Zn45_7 2.699962 1_555
Pt13_7 Zn45_3 2.699962 1_655
Pt13_7 Zn32_7 2.707698 1_555
Pt13_7 Zn32_3 2.707698 1_655
Pt13_7 Zn3_7 2.781481 1_555
Pt13_7 Zn3_3 2.781481 1_655
Pt13_7 Zn4_7 2.819384 1_555
Pt13_7 Zn4_3 2.819384 1_655
Pt14_0 Zn1_0 2.637028 1_555
Pt14_0 Zn1_4 2.637028 1_555
Pt14_0 Zn26_0 2.700980 1_555
Pt14_0 Zn26_4 2.700980 1_555
Pt14_0 Zn4_0 2.711524 1_555
Pt14_0 Zn4_4 2.711524 1_555
Pt14_0 Zn32_0 2.793342 1_555
Pt14_0 Zn32_4 2.793342 1_555
Pt14_0 Zn20_2 2.799590 1_555
Pt14_0 Zn20_6 2.799590 1_555
Pt14_0 Pt14_4 2.805967 1_555
Pt14_0 Pt14_4 2.805967 1_455
Pt14_1 Zn1_1 2.637028 1_555
Pt14_1 Zn1_5 2.637028 1_555
Pt14_1 Zn26_1 2.700980 1_555
Pt14_1 Zn26_5 2.700980 1_555
Pt14_1 Zn4_5 2.711524 1_555
Pt14_1 Zn4_1 2.711524 1_555
Pt14_1 Zn32_5 2.793342 1_555
Pt14_1 Zn32_1 2.793342 1_555
Pt14_1 Zn20_3 2.799590 1_555
Pt14_1 Zn20_7 2.799590 1_555
Pt14_1 Pt14_5 2.805967 1_555
Pt14_1 Pt14_5 2.805967 1_455
Pt14_2 Zn1_2 2.637028 1_555
Pt14_2 Zn1_6 2.637028 1_555
Pt14_2 Zn26_6 2.700980 1_555
Pt14_2 Zn26_2 2.700980 1_555
Pt14_2 Zn4_2 2.711524 1_555
Pt14_2 Zn4_6 2.711524 1_555
Pt14_2 Zn32_2 2.793342 1_555
Pt14_2 Zn32_6 2.793342 1_555
Pt14_2 Zn20_4 2.799590 1_565
Pt14_2 Zn20_0 2.799590 1_565
Pt14_2 Pt14_6 2.805967 1_555
Pt14_2 Pt14_6 2.805967 1_455
Pt14_3 Zn1_7 2.637028 1_555
Pt14_3 Zn1_3 2.637028 1_555
Pt14_3 Zn26_3 2.700980 1_555
Pt14_3 Zn26_7 2.700980 1_555
Pt14_3 Zn4_3 2.711524 1_555
Pt14_3 Zn4_7 2.711524 1_555
Pt14_3 Zn32_3 2.793342 1_555
Pt14_3 Zn32_7 2.793342 1_555
Pt14_3 Zn20_1 2.799590 1_565
Pt14_3 Zn20_5 2.799590 1_565
Pt14_3 Pt14_7 2.805967 1_555
Pt14_3 Pt14_7 2.805967 1_455
Pt14_4 Zn1_4 2.637028 1_555
Pt14_4 Zn1_0 2.637028 1_655
Pt14_4 Zn26_4 2.700980 1_555
Pt14_4 Zn26_0 2.700980 1_655
Pt14_4 Zn4_4 2.711524 1_555
Pt14_4 Zn4_0 2.711524 1_655
Pt14_4 Zn32_4 2.793342 1_555
Pt14_4 Zn32_0 2.793342 1_655
Pt14_4 Zn20_6 2.799590 1_555
Pt14_4 Zn20_2 2.799590 1_655
Pt14_5 Zn1_5 2.637028 1_555
Pt14_5 Zn1_1 2.637028 1_655
Pt14_5 Zn26_5 2.700980 1_555
Pt14_5 Zn26_1 2.700980 1_655
Pt14_5 Zn4_5 2.711524 1_555
Pt14_5 Zn4_1 2.711524 1_655
Pt14_5 Zn32_5 2.793342 1_555
Pt14_5 Zn32_1 2.793342 1_655
Pt14_5 Zn20_7 2.799590 1_555
Pt14_5 Zn20_3 2.799590 1_655
Pt14_6 Zn1_6 2.637028 1_555
Pt14_6 Zn1_2 2.637028 1_655
Pt14_6 Zn26_6 2.700980 1_555
Pt14_6 Zn26_2 2.700980 1_655
Pt14_6 Zn4_6 2.711524 1_555
Pt14_6 Zn4_2 2.711524 1_655
Pt14_6 Zn32_6 2.793342 1_555
Pt14_6 Zn32_2 2.793342 1_655
Pt14_6 Zn20_4 2.799590 1_565
Pt14_6 Zn20_0 2.799590 1_665
Pt14_7 Zn1_7 2.637028 1_555
Pt14_7 Zn1_3 2.637028 1_655
Pt14_7 Zn26_7 2.700980 1_555
Pt14_7 Zn26_3 2.700980 1_655
Pt14_7 Zn4_7 2.711524 1_555
Pt14_7 Zn4_3 2.711524 1_655
Pt14_7 Zn32_7 2.793342 1_555
Pt14_7 Zn32_3 2.793342 1_655
Pt14_7 Zn20_5 2.799590 1_565
Pt14_7 Zn20_1 2.799590 1_665
Pt15_0 Zn15_0 2.653151 1_555
Pt15_0 Zn15_4 2.653151 1_555
Pt15_0 Zn28_0 2.673532 1_555
Pt15_0 Zn28_4 2.673532 1_555
Pt15_0 Zn27_0 2.674223 1_555
Pt15_0 Zn27_4 2.674223 1_555
Pt15_0 Zn48_4 2.683016 1_555
Pt15_0 Zn48_0 2.683016 1_555
Pt15_0 Pt15_4 2.805967 1_555
Pt15_0 Pt15_4 2.805967 1_455
Pt15_0 Zn8_2 2.993282 1_545
Pt15_0 Zn8_6 2.993282 1_545
Pt15_1 Zn15_5 2.653151 1_555
Pt15_1 Zn15_1 2.653151 1_555
Pt15_1 Zn28_1 2.673532 1_555
Pt15_1 Zn28_5 2.673532 1_555
Pt15_1 Zn27_1 2.674223 1_555
Pt15_1 Zn27_5 2.674223 1_555
Pt15_1 Zn48_1 2.683016 1_555
Pt15_1 Zn48_5 2.683016 1_555
Pt15_1 Pt15_5 2.805967 1_555
Pt15_1 Pt15_5 2.805967 1_455
Pt15_1 Zn8_3 2.993282 1_545
Pt15_1 Zn8_7 2.993282 1_545
Pt15_2 Zn15_2 2.653151 1_555
Pt15_2 Zn15_6 2.653151 1_555
Pt15_2 Zn28_2 2.673532 1_555
Pt15_2 Zn28_6 2.673532 1_555
Pt15_2 Zn27_6 2.674223 1_555
Pt15_2 Zn27_2 2.674223 1_555
Pt15_2 Zn48_2 2.683016 1_555
Pt15_2 Zn48_6 2.683016 1_555
Pt15_2 Pt15_6 2.805967 1_555
Pt15_2 Pt15_6 2.805967 1_455
Pt15_2 Zn8_4 2.993282 1_555
Pt15_2 Zn8_0 2.993282 1_555
Pt15_3 Zn15_3 2.653151 1_555
Pt15_3 Zn15_7 2.653151 1_555
Pt15_3 Zn28_3 2.673532 1_555
Pt15_3 Zn28_7 2.673532 1_555
Pt15_3 Zn27_3 2.674223 1_555
Pt15_3 Zn27_7 2.674223 1_555
Pt15_3 Zn48_3 2.683016 1_555
Pt15_3 Zn48_7 2.683016 1_555
Pt15_3 Pt15_7 2.805967 1_555
Pt15_3 Pt15_7 2.805967 1_455
Pt15_3 Zn8_1 2.993282 1_555
Pt15_3 Zn8_5 2.993282 1_555
Pt15_4 Zn15_4 2.653151 1_555
Pt15_4 Zn15_0 2.653151 1_655
Pt15_4 Zn28_4 2.673532 1_555
Pt15_4 Zn28_0 2.673532 1_655
Pt15_4 Zn27_4 2.674223 1_555
Pt15_4 Zn27_0 2.674223 1_655
Pt15_4 Zn48_4 2.683016 1_555
Pt15_4 Zn48_0 2.683016 1_655
Pt15_4 Zn8_6 2.993282 1_545
Pt15_4 Zn8_2 2.993282 1_645
Pt15_5 Zn15_5 2.653151 1_555
Pt15_5 Zn15_1 2.653151 1_655
Pt15_5 Zn28_5 2.673532 1_555
Pt15_5 Zn28_1 2.673532 1_655
Pt15_5 Zn27_5 2.674223 1_555
Pt15_5 Zn27_1 2.674223 1_655
Pt15_5 Zn48_5 2.683016 1_555
Pt15_5 Zn48_1 2.683016 1_655
Pt15_5 Zn8_7 2.993282 1_545
Pt15_5 Zn8_3 2.993282 1_645
Pt15_6 Zn15_6 2.653151 1_555
Pt15_6 Zn15_2 2.653151 1_655
Pt15_6 Zn28_6 2.673532 1_555
Pt15_6 Zn28_2 2.673532 1_655
Pt15_6 Zn27_6 2.674223 1_555
Pt15_6 Zn27_2 2.674223 1_655
Pt15_6 Zn48_6 2.683016 1_555
Pt15_6 Zn48_2 2.683016 1_655
Pt15_6 Zn8_4 2.993282 1_555
Pt15_6 Zn8_0 2.993282 1_655
Pt15_7 Zn15_7 2.653151 1_555
Pt15_7 Zn15_3 2.653151 1_655
Pt15_7 Zn28_7 2.673532 1_555
Pt15_7 Zn28_3 2.673532 1_655
Pt15_7 Zn27_7 2.674223 1_555
Pt15_7 Zn27_3 2.674223 1_655
Pt15_7 Zn48_7 2.683016 1_555
Pt15_7 Zn48_3 2.683016 1_655
Pt15_7 Zn8_5 2.993282 1_555
Pt15_7 Zn8_1 2.993282 1_655
Pt16_0 Zn31_6 2.653151 1_555
Pt16_0 Zn31_2 2.653151 1_555
Pt16_0 Zn35_2 2.673532 1_555
Pt16_0 Zn35_6 2.673532 1_555
Pt16_0 Zn16_0 2.674223 1_555
Pt16_0 Zn16_4 2.674223 1_555
Pt16_0 Zn41_0 2.683016 1_555
Pt16_0 Zn41_4 2.683016 1_555
Pt16_0 Pt16_4 2.805967 1_555
Pt16_0 Pt16_4 2.805967 1_455
Pt16_0 Zn19_0 2.993282 1_555
Pt16_0 Zn19_4 2.993282 1_555
Pt16_1 Zn31_3 2.653151 1_555
Pt16_1 Zn31_7 2.653151 1_555
Pt16_1 Zn35_3 2.673532 1_555
Pt16_1 Zn35_7 2.673532 1_555
Pt16_1 Zn16_1 2.674223 1_555
Pt16_1 Zn16_5 2.674223 1_555
Pt16_1 Zn41_1 2.683016 1_555
Pt16_1 Zn41_5 2.683016 1_555
Pt16_1 Pt16_5 2.805967 1_555
Pt16_1 Pt16_5 2.805967 1_455
Pt16_1 Zn19_1 2.993282 1_555
Pt16_1 Zn19_5 2.993282 1_555
Pt16_2 Zn31_4 2.653151 1_565
Pt16_2 Zn31_0 2.653151 1_565
Pt16_2 Zn35_0 2.673532 1_565
Pt16_2 Zn35_4 2.673532 1_565
Pt16_2 Zn16_6 2.674223 1_555
Pt16_2 Zn16_2 2.674223 1_555
Pt16_2 Zn41_2 2.683016 1_555
Pt16_2 Zn41_6 2.683016 1_555
Pt16_2 Pt16_6 2.805967 1_555
Pt16_2 Pt16_6 2.805967 1_455
Pt16_2 Zn19_2 2.993282 1_555
Pt16_2 Zn19_6 2.993282 1_555
Pt16_3 Zn31_1 2.653151 1_565
Pt16_3 Zn31_5 2.653151 1_565
Pt16_3 Zn35_1 2.673532 1_565
Pt16_3 Zn35_5 2.673532 1_565
Pt16_3 Zn16_3 2.674223 1_555
Pt16_3 Zn16_7 2.674223 1_555
Pt16_3 Zn41_7 2.683016 1_555
Pt16_3 Zn41_3 2.683016 1_555
Pt16_3 Pt16_7 2.805967 1_555
Pt16_3 Pt16_7 2.805967 1_455
Pt16_3 Zn19_3 2.993282 1_555
Pt16_3 Zn19_7 2.993282 1_555
Pt16_4 Zn31_6 2.653151 1_555
Pt16_4 Zn31_2 2.653151 1_655
Pt16_4 Zn35_6 2.673532 1_555
Pt16_4 Zn35_2 2.673532 1_655
Pt16_4 Zn16_4 2.674223 1_555
Pt16_4 Zn16_0 2.674223 1_655
Pt16_4 Zn41_4 2.683016 1_555
Pt16_4 Zn41_0 2.683016 1_655
Pt16_4 Zn19_4 2.993282 1_555
Pt16_4 Zn19_0 2.993282 1_655
Pt16_5 Zn31_7 2.653151 1_555
Pt16_5 Zn31_3 2.653151 1_655
Pt16_5 Zn35_7 2.673532 1_555
Pt16_5 Zn35_3 2.673532 1_655
Pt16_5 Zn16_5 2.674223 1_555
Pt16_5 Zn16_1 2.674223 1_655
Pt16_5 Zn41_5 2.683016 1_555
Pt16_5 Zn41_1 2.683016 1_655
Pt16_5 Zn19_5 2.993282 1_555
Pt16_5 Zn19_1 2.993282 1_655
Pt16_6 Zn31_4 2.653151 1_565
Pt16_6 Zn31_0 2.653151 1_665
Pt16_6 Zn35_4 2.673532 1_565
Pt16_6 Zn35_0 2.673532 1_665
Pt16_6 Zn16_6 2.674223 1_555
Pt16_6 Zn16_2 2.674223 1_655
Pt16_6 Zn41_6 2.683016 1_555
Pt16_6 Zn41_2 2.683016 1_655
Pt16_6 Zn19_6 2.993282 1_555
Pt16_6 Zn19_2 2.993282 1_655
Pt16_7 Zn31_5 2.653151 1_565
Pt16_7 Zn31_1 2.653151 1_665
Pt16_7 Zn35_5 2.673532 1_565
Pt16_7 Zn35_1 2.673532 1_665
Pt16_7 Zn16_7 2.674223 1_555
Pt16_7 Zn16_3 2.674223 1_655
Pt16_7 Zn41_7 2.683016 1_555
Pt16_7 Zn41_3 2.683016 1_655
Pt16_7 Zn19_7 2.993282 1_555
Pt16_7 Zn19_3 2.993282 1_655
Pt17_0 Zn28_0 2.656423 1_555
Pt17_0 Zn28_4 2.656423 1_555
Pt17_0 Zn41_0 2.665456 1_555
Pt17_0 Zn41_4 2.665456 1_555
Pt17_0 Zn48_2 2.666185 1_555
Pt17_0 Zn48_6 2.666185 1_555
Pt17_0 Zn8_4 2.674890 1_555
Pt17_0 Zn8_0 2.674890 1_555
Pt17_0 Pt17_4 2.805967 1_555
Pt17_0 Pt17_4 2.805967 1_455
Pt17_0 Zn35_2 3.124497 1_555
Pt17_0 Zn35_6 3.124497 1_555
Pt17_1 Zn28_1 2.656423 1_555
Pt17_1 Zn28_5 2.656423 1_555
Pt17_1 Zn41_1 2.665456 1_555
Pt17_1 Zn41_5 2.665456 1_555
Pt17_1 Zn48_7 2.666185 1_555
Pt17_1 Zn48_3 2.666185 1_555
Pt17_1 Zn8_5 2.674890 1_555
Pt17_1 Zn8_1 2.674890 1_555
Pt17_1 Pt17_5 2.805967 1_555
Pt17_1 Pt17_5 2.805967 1_455
Pt17_1 Zn35_3 3.124497 1_555
Pt17_1 Zn35_7 3.124497 1_555
Pt17_2 Zn28_2 2.656423 1_555
Pt17_2 Zn28_6 2.656423 1_555
Pt17_2 Zn41_2 2.665456 1_555
Pt17_2 Zn41_6 2.665456 1_555
Pt17_2 Zn48_0 2.666185 1_565
Pt17_2 Zn48_4 2.666185 1_565
Pt17_2 Zn8_6 2.674890 1_555
Pt17_2 Zn8_2 2.674890 1_555
Pt17_2 Pt17_6 2.805967 1_555
Pt17_2 Pt17_6 2.805967 1_455
Pt17_2 Zn35_4 3.124497 1_565
Pt17_2 Zn35_0 3.124497 1_565
Pt17_3 Zn28_3 2.656423 1_555
Pt17_3 Zn28_7 2.656423 1_555
Pt17_3 Zn41_3 2.665456 1_555
Pt17_3 Zn41_7 2.665456 1_555
Pt17_3 Zn48_1 2.666185 1_565
Pt17_3 Zn48_5 2.666185 1_565
Pt17_3 Zn8_7 2.674890 1_555
Pt17_3 Zn8_3 2.674890 1_555
Pt17_3 Pt17_7 2.805967 1_555
Pt17_3 Pt17_7 2.805967 1_455
Pt17_3 Zn35_1 3.124497 1_565
Pt17_3 Zn35_5 3.124497 1_565
Pt17_4 Zn28_4 2.656423 1_555
Pt17_4 Zn28_0 2.656423 1_655
Pt17_4 Zn41_4 2.665456 1_555
Pt17_4 Zn41_0 2.665456 1_655
Pt17_4 Zn48_6 2.666185 1_555
Pt17_4 Zn48_2 2.666185 1_655
Pt17_4 Zn8_4 2.674890 1_555
Pt17_4 Zn8_0 2.674890 1_655
Pt17_4 Zn35_2 3.124497 1_655
Pt17_4 Zn35_6 3.124497 1_555
Pt17_5 Zn28_5 2.656423 1_555
Pt17_5 Zn28_1 2.656423 1_655
Pt17_5 Zn41_5 2.665456 1_555
Pt17_5 Zn41_1 2.665456 1_655
Pt17_5 Zn48_7 2.666185 1_555
Pt17_5 Zn48_3 2.666185 1_655
Pt17_5 Zn8_5 2.674890 1_555
Pt17_5 Zn8_1 2.674890 1_655
Pt17_5 Zn35_7 3.124497 1_555
Pt17_5 Zn35_3 3.124497 1_655
Pt17_6 Zn28_6 2.656423 1_555
Pt17_6 Zn28_2 2.656423 1_655
Pt17_6 Zn41_6 2.665456 1_555
Pt17_6 Zn41_2 2.665456 1_655
Pt17_6 Zn48_4 2.666185 1_565
Pt17_6 Zn48_0 2.666185 1_665
Pt17_6 Zn8_6 2.674890 1_555
Pt17_6 Zn8_2 2.674890 1_655
Pt17_6 Zn35_4 3.124497 1_565
Pt17_6 Zn35_0 3.124497 1_665
Pt17_7 Zn28_7 2.656423 1_555
Pt17_7 Zn28_3 2.656423 1_655
Pt17_7 Zn41_7 2.665456 1_555
Pt17_7 Zn41_3 2.665456 1_655
Pt17_7 Zn48_5 2.666185 1_565
Pt17_7 Zn48_1 2.666185 1_665
Pt17_7 Zn8_7 2.674890 1_555
Pt17_7 Zn8_3 2.674890 1_655
Pt17_7 Zn35_1 3.124497 1_665
Pt17_7 Zn35_5 3.124497 1_565
Pt18_0 Zn13_0 2.646192 1_555
Pt18_0 Zn13_4 2.646192 1_555
Pt18_0 Zn7_0 2.651295 1_555
Pt18_0 Zn7_4 2.651295 1_555
Pt18_0 Zn2_0 2.652296 1_555
Pt18_0 Zn2_4 2.652296 1_555
Pt18_0 Zn39_0 2.658208 1_555
Pt18_0 Zn39_4 2.658208 1_555
Pt18_0 Pt18_4 2.805967 1_555
Pt18_0 Pt18_4 2.805967 1_455
Pt18_1 Zn13_5 2.646192 1_555
Pt18_1 Zn13_1 2.646192 1_555
Pt18_1 Zn7_1 2.651295 1_555
Pt18_1 Zn7_5 2.651295 1_555
Pt18_1 Zn2_1 2.652296 1_555
Pt18_1 Zn2_5 2.652296 1_555
Pt18_1 Zn39_1 2.658208 1_555
Pt18_1 Zn39_5 2.658208 1_555
Pt18_1 Pt18_5 2.805967 1_555
Pt18_1 Pt18_5 2.805967 1_455
Pt18_2 Zn13_2 2.646192 1_555
Pt18_2 Zn13_6 2.646192 1_555
Pt18_2 Zn7_6 2.651295 1_555
Pt18_2 Zn7_2 2.651295 1_555
Pt18_2 Zn2_6 2.652296 1_555
Pt18_2 Zn2_2 2.652296 1_555
Pt18_2 Zn39_2 2.658208 1_555
Pt18_2 Zn39_6 2.658208 1_555
Pt18_2 Pt18_6 2.805967 1_555
Pt18_2 Pt18_6 2.805967 1_455
Pt18_3 Zn13_3 2.646192 1_555
Pt18_3 Zn13_7 2.646192 1_555
Pt18_3 Zn7_3 2.651295 1_555
Pt18_3 Zn7_7 2.651295 1_555
Pt18_3 Zn2_3 2.652296 1_555
Pt18_3 Zn2_7 2.652296 1_555
Pt18_3 Zn39_7 2.658208 1_555
Pt18_3 Zn39_3 2.658208 1_555
Pt18_3 Pt18_7 2.805967 1_555
Pt18_3 Pt18_7 2.805967 1_455
Pt18_4 Zn13_4 2.646192 1_555
Pt18_4 Zn13_0 2.646192 1_655
Pt18_4 Zn7_4 2.651295 1_555
Pt18_4 Zn7_0 2.651295 1_655
Pt18_4 Zn2_4 2.652296 1_555
Pt18_4 Zn2_0 2.652296 1_655
Pt18_4 Zn39_4 2.658208 1_555
Pt18_4 Zn39_0 2.658208 1_655
Pt18_5 Zn13_5 2.646192 1_555
Pt18_5 Zn13_1 2.646192 1_655
Pt18_5 Zn7_5 2.651295 1_555
Pt18_5 Zn7_1 2.651295 1_655
Pt18_5 Zn2_5 2.652296 1_555
Pt18_5 Zn2_1 2.652296 1_655
Pt18_5 Zn39_1 2.658208 1_655
Pt18_5 Zn39_5 2.658208 1_555
Pt18_6 Zn13_6 2.646192 1_555
Pt18_6 Zn13_2 2.646192 1_655
Pt18_6 Zn7_6 2.651295 1_555
Pt18_6 Zn7_2 2.651295 1_655
Pt18_6 Zn2_6 2.652296 1_555
Pt18_6 Zn2_2 2.652296 1_655
Pt18_6 Zn39_6 2.658208 1_555
Pt18_6 Zn39_2 2.658208 1_655
Pt18_7 Zn13_7 2.646192 1_555
Pt18_7 Zn13_3 2.646192 1_655
Pt18_7 Zn7_7 2.651295 1_555
Pt18_7 Zn7_3 2.651295 1_655
Pt18_7 Zn2_7 2.652296 1_555
Pt18_7 Zn2_3 2.652296 1_655
Pt18_7 Zn39_7 2.658208 1_555
Pt18_7 Zn39_3 2.658208 1_655
Pt19_0 Zn5_0 2.646192 1_555
Pt19_0 Zn5_4 2.646192 1_555
Pt19_0 Zn40_0 2.651295 1_555
Pt19_0 Zn40_4 2.651295 1_555
Pt19_0 Zn0_0 2.652296 1_555
Pt19_0 Zn0_4 2.652296 1_555
Pt19_0 Zn45_4 2.658208 1_555
Pt19_0 Zn45_0 2.658208 1_555
Pt19_0 Pt19_4 2.805967 1_555
Pt19_0 Pt19_4 2.805967 1_455
Pt19_1 Zn5_1 2.646192 1_555
Pt19_1 Zn5_5 2.646192 1_555
Pt19_1 Zn40_1 2.651295 1_555
Pt19_1 Zn40_5 2.651295 1_555
Pt19_1 Zn0_1 2.652296 1_555
Pt19_1 Zn0_5 2.652296 1_555
Pt19_1 Zn45_1 2.658208 1_555
Pt19_1 Zn45_5 2.658208 1_555
Pt19_1 Pt19_5 2.805967 1_555
Pt19_1 Pt19_5 2.805967 1_455
Pt19_2 Zn5_2 2.646192 1_555
Pt19_2 Zn5_6 2.646192 1_555
Pt19_2 Zn40_6 2.651295 1_555
Pt19_2 Zn40_2 2.651295 1_555
Pt19_2 Zn0_6 2.652296 1_555
Pt19_2 Zn0_2 2.652296 1_555
Pt19_2 Zn45_2 2.658208 1_555
Pt19_2 Zn45_6 2.658208 1_555
Pt19_2 Pt19_6 2.805967 1_555
Pt19_2 Pt19_6 2.805967 1_455
Pt19_3 Zn5_7 2.646192 1_555
Pt19_3 Zn5_3 2.646192 1_555
Pt19_3 Zn40_7 2.651295 1_555
Pt19_3 Zn40_3 2.651295 1_555
Pt19_3 Zn0_3 2.652296 1_555
Pt19_3 Zn0_7 2.652296 1_555
Pt19_3 Zn45_3 2.658208 1_555
Pt19_3 Zn45_7 2.658208 1_555
Pt19_3 Pt19_7 2.805967 1_555
Pt19_3 Pt19_7 2.805967 1_455
Pt19_4 Zn5_4 2.646192 1_555
Pt19_4 Zn5_0 2.646192 1_655
Pt19_4 Zn40_4 2.651295 1_555
Pt19_4 Zn40_0 2.651295 1_655
Pt19_4 Zn0_0 2.652296 1_655
Pt19_4 Zn0_4 2.652296 1_555
Pt19_4 Zn45_4 2.658208 1_555
Pt19_4 Zn45_0 2.658208 1_655
Pt19_5 Zn5_5 2.646192 1_555
Pt19_5 Zn5_1 2.646192 1_655
Pt19_5 Zn40_5 2.651295 1_555
Pt19_5 Zn40_1 2.651295 1_655
Pt19_5 Zn0_5 2.652296 1_555
Pt19_5 Zn0_1 2.652296 1_655
Pt19_5 Zn45_5 2.658208 1_555
Pt19_5 Zn45_1 2.658208 1_655
Pt19_6 Zn5_6 2.646192 1_555
Pt19_6 Zn5_2 2.646192 1_655
Pt19_6 Zn40_6 2.651295 1_555
Pt19_6 Zn40_2 2.651295 1_655
Pt19_6 Zn0_6 2.652296 1_555
Pt19_6 Zn0_2 2.652296 1_655
Pt19_6 Zn45_6 2.658208 1_555
Pt19_6 Zn45_2 2.658208 1_655
Pt19_7 Zn5_7 2.646192 1_555
Pt19_7 Zn5_3 2.646192 1_655
Pt19_7 Zn40_7 2.651295 1_555
Pt19_7 Zn40_3 2.651295 1_655
Pt19_7 Zn0_7 2.652296 1_555
Pt19_7 Zn0_3 2.652296 1_655
Pt19_7 Zn45_7 2.658208 1_555
Pt19_7 Zn45_3 2.658208 1_655
Pt20_0 Zn11_2 2.649929 1_555
Pt20_0 Zn11_6 2.649929 1_555
Pt20_0 Zn13_2 2.688466 1_555
Pt20_0 Zn13_6 2.688466 1_555
Pt20_0 Zn25_0 2.690186 1_555
Pt20_0 Zn25_4 2.690186 1_555
Pt20_0 Zn2_0 2.717730 1_555
Pt20_0 Zn2_4 2.717730 1_555
Pt20_0 Pt20_4 2.805967 1_555
Pt20_0 Pt20_4 2.805967 1_455
Pt20_0 Zn7_4 2.930623 1_555
Pt20_0 Zn7_0 2.930623 1_555
Pt20_1 Zn11_3 2.649929 1_555
Pt20_1 Zn11_7 2.649929 1_555
Pt20_1 Zn13_7 2.688466 1_555
Pt20_1 Zn13_3 2.688466 1_555
Pt20_1 Zn25_5 2.690186 1_555
Pt20_1 Zn25_1 2.690186 1_555
Pt20_1 Zn2_5 2.717730 1_555
Pt20_1 Zn2_1 2.717730 1_555
Pt20_1 Pt20_5 2.805967 1_555
Pt20_1 Pt20_5 2.805967 1_455
Pt20_1 Zn7_1 2.930623 1_555
Pt20_1 Zn7_5 2.930623 1_555
Pt20_2 Zn11_0 2.649929 1_565
Pt20_2 Zn11_4 2.649929 1_565
Pt20_2 Zn13_0 2.688466 1_565
Pt20_2 Zn13_4 2.688466 1_565
Pt20_2 Zn25_2 2.690186 1_555
Pt20_2 Zn25_6 2.690186 1_555
Pt20_2 Zn2_6 2.717730 1_555
Pt20_2 Zn2_2 2.717730 1_555
Pt20_2 Pt20_6 2.805967 1_555
Pt20_2 Pt20_6 2.805967 1_455
Pt20_2 Zn7_2 2.930623 1_555
Pt20_2 Zn7_6 2.930623 1_555
Pt20_3 Zn11_1 2.649929 1_565
Pt20_3 Zn11_5 2.649929 1_565
Pt20_3 Zn13_1 2.688466 1_565
Pt20_3 Zn13_5 2.688466 1_565
Pt20_3 Zn25_3 2.690186 1_555
Pt20_3 Zn25_7 2.690186 1_555
Pt20_3 Zn2_3 2.717730 1_555
Pt20_3 Zn2_7 2.717730 1_555
Pt20_3 Pt20_7 2.805967 1_555
Pt20_3 Pt20_7 2.805967 1_455
Pt20_3 Zn7_7 2.930623 1_555
Pt20_3 Zn7_3 2.930623 1_555
Pt20_4 Zn11_6 2.649929 1_555
Pt20_4 Zn11_2 2.649929 1_655
Pt20_4 Zn13_6 2.688466 1_555
Pt20_4 Zn13_2 2.688466 1_655
Pt20_4 Zn25_4 2.690186 1_555
Pt20_4 Zn25_0 2.690186 1_655
Pt20_4 Zn2_4 2.717730 1_555
Pt20_4 Zn2_0 2.717730 1_655
Pt20_4 Zn7_4 2.930623 1_555
Pt20_4 Zn7_0 2.930623 1_655
Pt20_5 Zn11_7 2.649929 1_555
Pt20_5 Zn11_3 2.649929 1_655
Pt20_5 Zn13_7 2.688466 1_555
Pt20_5 Zn13_3 2.688466 1_655
Pt20_5 Zn25_5 2.690186 1_555
Pt20_5 Zn25_1 2.690186 1_655
Pt20_5 Zn2_5 2.717730 1_555
Pt20_5 Zn2_1 2.717730 1_655
Pt20_5 Zn7_5 2.930623 1_555
Pt20_5 Zn7_1 2.930623 1_655
Pt20_6 Zn11_4 2.649929 1_565
Pt20_6 Zn11_0 2.649929 1_665
Pt20_6 Zn13_4 2.688466 1_565
Pt20_6 Zn13_0 2.688466 1_665
Pt20_6 Zn25_6 2.690186 1_555
Pt20_6 Zn25_2 2.690186 1_655
Pt20_6 Zn2_6 2.717730 1_555
Pt20_6 Zn2_2 2.717730 1_655
Pt20_6 Zn7_6 2.930623 1_555
Pt20_6 Zn7_2 2.930623 1_655
Pt20_7 Zn11_5 2.649929 1_565
Pt20_7 Zn11_1 2.649929 1_665
Pt20_7 Zn13_5 2.688466 1_565
Pt20_7 Zn13_1 2.688466 1_665
Pt20_7 Zn25_7 2.690186 1_555
Pt20_7 Zn25_3 2.690186 1_655
Pt20_7 Zn2_7 2.717730 1_555
Pt20_7 Zn2_3 2.717730 1_655
Pt20_7 Zn7_7 2.930623 1_555
Pt20_7 Zn7_3 2.930623 1_655
Pt21_0 Zn11_0 2.647605 1_555
Pt21_0 Zn11_4 2.647605 1_555
Pt21_0 Zn2_0 2.681420 1_555
Pt21_0 Zn2_4 2.681420 1_555
Pt21_0 Zn47_0 2.682656 1_555
Pt21_0 Zn47_4 2.682656 1_555
Pt21_0 Zn10_0 2.692052 1_555
Pt21_0 Zn10_4 2.692052 1_555
Pt21_0 Pt21_4 2.805967 1_555
Pt21_0 Pt21_4 2.805967 1_455
Pt21_0 Zn25_4 2.959073 1_555
Pt21_0 Zn25_0 2.959073 1_555
Pt21_1 Zn11_5 2.647605 1_555
Pt21_1 Zn11_1 2.647605 1_555
Pt21_1 Zn2_1 2.681420 1_555
Pt21_1 Zn2_5 2.681420 1_555
Pt21_1 Zn47_1 2.682656 1_555
Pt21_1 Zn47_5 2.682656 1_555
Pt21_1 Zn10_1 2.692052 1_555
Pt21_1 Zn10_5 2.692052 1_555
Pt21_1 Pt21_5 2.805967 1_555
Pt21_1 Pt21_5 2.805967 1_455
Pt21_1 Zn25_1 2.959073 1_555
Pt21_1 Zn25_5 2.959073 1_555
Pt21_2 Zn11_2 2.647605 1_555
Pt21_2 Zn11_6 2.647605 1_555
Pt21_2 Zn2_6 2.681420 1_555
Pt21_2 Zn2_2 2.681420 1_555
Pt21_2 Zn47_6 2.682656 1_555
Pt21_2 Zn47_2 2.682656 1_555
Pt21_2 Zn10_6 2.692052 1_555
Pt21_2 Zn10_2 2.692052 1_555
Pt21_2 Pt21_6 2.805967 1_555
Pt21_2 Pt21_6 2.805967 1_455
Pt21_2 Zn25_6 2.959073 1_555
Pt21_2 Zn25_2 2.959073 1_555
Pt21_3 Zn11_3 2.647605 1_555
Pt21_3 Zn11_7 2.647605 1_555
Pt21_3 Zn2_7 2.681420 1_555
Pt21_3 Zn2_3 2.681420 1_555
Pt21_3 Zn47_3 2.682656 1_555
Pt21_3 Zn47_7 2.682656 1_555
Pt21_3 Zn10_7 2.692052 1_555
Pt21_3 Zn10_3 2.692052 1_555
Pt21_3 Pt21_7 2.805967 1_555
Pt21_3 Pt21_7 2.805967 1_455
Pt21_3 Zn25_3 2.959073 1_555
Pt21_3 Zn25_7 2.959073 1_555
Pt21_4 Zn11_4 2.647605 1_555
Pt21_4 Zn11_0 2.647605 1_655
Pt21_4 Zn2_4 2.681420 1_555
Pt21_4 Zn2_0 2.681420 1_655
Pt21_4 Zn47_4 2.682656 1_555
Pt21_4 Zn47_0 2.682656 1_655
Pt21_4 Zn10_4 2.692052 1_555
Pt21_4 Zn10_0 2.692052 1_655
Pt21_4 Zn25_4 2.959073 1_555
Pt21_4 Zn25_0 2.959073 1_655
Pt21_5 Zn11_5 2.647605 1_555
Pt21_5 Zn11_1 2.647605 1_655
Pt21_5 Zn2_5 2.681420 1_555
Pt21_5 Zn2_1 2.681420 1_655
Pt21_5 Zn47_1 2.682656 1_655
Pt21_5 Zn47_5 2.682656 1_555
Pt21_5 Zn10_5 2.692052 1_555
Pt21_5 Zn10_1 2.692052 1_655
Pt21_5 Zn25_5 2.959073 1_555
Pt21_5 Zn25_1 2.959073 1_655
Pt21_6 Zn11_6 2.647605 1_555
Pt21_6 Zn11_2 2.647605 1_655
Pt21_6 Zn2_6 2.681420 1_555
Pt21_6 Zn2_2 2.681420 1_655
Pt21_6 Zn47_6 2.682656 1_555
Pt21_6 Zn47_2 2.682656 1_655
Pt21_6 Zn10_6 2.692052 1_555
Pt21_6 Zn10_2 2.692052 1_655
Pt21_6 Zn25_6 2.959073 1_555
Pt21_6 Zn25_2 2.959073 1_655
Pt21_7 Zn11_7 2.647605 1_555
Pt21_7 Zn11_3 2.647605 1_655
Pt21_7 Zn2_7 2.681420 1_555
Pt21_7 Zn2_3 2.681420 1_655
Pt21_7 Zn47_7 2.682656 1_555
Pt21_7 Zn47_3 2.682656 1_655
Pt21_7 Zn10_7 2.692052 1_555
Pt21_7 Zn10_3 2.692052 1_655
Pt21_7 Zn25_7 2.959073 1_555
Pt21_7 Zn25_3 2.959073 1_655
Pt22_0 Zn30_2 2.655959 1_555
Pt22_0 Zn30_6 2.655959 1_555
Pt22_0 Zn44_6 2.656674 1_555
Pt22_0 Zn44_2 2.656674 1_555
Pt22_0 Zn6_0 2.657151 1_555
Pt22_0 Zn6_4 2.657151 1_555
Pt22_0 Zn14_0 2.667947 1_555
Pt22_0 Zn14_4 2.667947 1_555
Pt22_0 Pt22_4 2.805967 1_555
Pt22_0 Pt22_4 2.805967 1_455
Pt22_0 Zn46_4 3.212924 1_555
Pt22_0 Zn46_0 3.212924 1_555
Pt22_1 Zn30_3 2.655959 1_555
Pt22_1 Zn30_7 2.655959 1_555
Pt22_1 Zn44_7 2.656674 1_555
Pt22_1 Zn44_3 2.656674 1_555
Pt22_1 Zn6_5 2.657151 1_555
Pt22_1 Zn6_1 2.657151 1_555
Pt22_1 Zn14_1 2.667947 1_555
Pt22_1 Zn14_5 2.667947 1_555
Pt22_1 Pt22_5 2.805967 1_555
Pt22_1 Pt22_5 2.805967 1_455
Pt22_1 Zn46_5 3.212924 1_555
Pt22_1 Zn46_1 3.212924 1_555
Pt22_2 Zn30_4 2.655959 1_565
Pt22_2 Zn30_0 2.655959 1_565
Pt22_2 Zn44_0 2.656674 1_565
Pt22_2 Zn44_4 2.656674 1_565
Pt22_2 Zn6_2 2.657151 1_555
Pt22_2 Zn6_6 2.657151 1_555
Pt22_2 Zn14_2 2.667947 1_555
Pt22_2 Zn14_6 2.667947 1_555
Pt22_2 Pt22_6 2.805967 1_555
Pt22_2 Pt22_6 2.805967 1_455
Pt22_2 Zn46_2 3.212924 1_555
Pt22_2 Zn46_6 3.212924 1_555
Pt22_3 Zn30_5 2.655959 1_565
Pt22_3 Zn30_1 2.655959 1_565
Pt22_3 Zn44_1 2.656674 1_565
Pt22_3 Zn44_5 2.656674 1_565
Pt22_3 Zn6_7 2.657151 1_555
Pt22_3 Zn6_3 2.657151 1_555
Pt22_3 Zn14_3 2.667947 1_555
Pt22_3 Zn14_7 2.667947 1_555
Pt22_3 Pt22_7 2.805967 1_555
Pt22_3 Pt22_7 2.805967 1_455
Pt22_3 Zn46_3 3.212924 1_555
Pt22_3 Zn46_7 3.212924 1_555
Pt22_4 Zn30_6 2.655959 1_555
Pt22_4 Zn30_2 2.655959 1_655
Pt22_4 Zn44_6 2.656674 1_555
Pt22_4 Zn44_2 2.656674 1_655
Pt22_4 Zn6_4 2.657151 1_555
Pt22_4 Zn6_0 2.657151 1_655
Pt22_4 Zn14_4 2.667947 1_555
Pt22_4 Zn14_0 2.667947 1_655
Pt22_4 Zn46_4 3.212924 1_555
Pt22_4 Zn46_0 3.212924 1_655
Pt22_5 Zn30_7 2.655959 1_555
Pt22_5 Zn30_3 2.655959 1_655
Pt22_5 Zn44_7 2.656674 1_555
Pt22_5 Zn44_3 2.656674 1_655
Pt22_5 Zn6_5 2.657151 1_555
Pt22_5 Zn6_1 2.657151 1_655
Pt22_5 Zn14_5 2.667947 1_555
Pt22_5 Zn14_1 2.667947 1_655
Pt22_5 Zn46_5 3.212924 1_555
Pt22_5 Zn46_1 3.212924 1_655
Pt22_6 Zn30_4 2.655959 1_565
Pt22_6 Zn30_0 2.655959 1_665
Pt22_6 Zn44_4 2.656674 1_565
Pt22_6 Zn44_0 2.656674 1_665
Pt22_6 Zn6_6 2.657151 1_555
Pt22_6 Zn6_2 2.657151 1_655
Pt22_6 Zn14_6 2.667947 1_555
Pt22_6 Zn14_2 2.667947 1_655
Pt22_6 Zn46_6 3.212924 1_555
Pt22_6 Zn46_2 3.212924 1_655
Pt22_7 Zn30_5 2.655959 1_565
Pt22_7 Zn30_1 2.655959 1_665
Pt22_7 Zn44_5 2.656674 1_565
Pt22_7 Zn44_1 2.656674 1_665
Pt22_7 Zn6_7 2.657151 1_555
Pt22_7 Zn6_3 2.657151 1_655
Pt22_7 Zn14_7 2.667947 1_555
Pt22_7 Zn14_3 2.667947 1_655
Pt22_7 Zn46_7 3.212924 1_555
Pt22_7 Zn46_3 3.212924 1_655
Pt23_0 Zn22_2 2.645993 1_555
Pt23_0 Zn22_6 2.645993 1_555
Pt23_0 Zn33_0 2.655393 1_555
Pt23_0 Zn33_4 2.655393 1_555
Pt23_0 Zn16_0 2.659357 1_555
Pt23_0 Zn16_4 2.659357 1_555
Pt23_0 Zn26_4 2.671243 1_555
Pt23_0 Zn26_0 2.671243 1_555
Pt23_0 Pt23_4 2.805967 1_555
Pt23_0 Pt23_4 2.805967 1_455
Pt23_1 Zn22_3 2.645993 1_555
Pt23_1 Zn22_7 2.645993 1_555
Pt23_1 Zn33_1 2.655393 1_555
Pt23_1 Zn33_5 2.655393 1_555
Pt23_1 Zn16_5 2.659357 1_555
Pt23_1 Zn16_1 2.659357 1_555
Pt23_1 Zn26_1 2.671243 1_555
Pt23_1 Zn26_5 2.671243 1_555
Pt23_1 Pt23_5 2.805967 1_555
Pt23_1 Pt23_5 2.805967 1_455
Pt23_2 Zn22_0 2.645993 1_565
Pt23_2 Zn22_4 2.645993 1_565
Pt23_2 Zn33_2 2.655393 1_555
Pt23_2 Zn33_6 2.655393 1_555
Pt23_2 Zn16_6 2.659357 1_555
Pt23_2 Zn16_2 2.659357 1_555
Pt23_2 Zn26_2 2.671243 1_555
Pt23_2 Zn26_6 2.671243 1_555
Pt23_2 Pt23_6 2.805967 1_555
Pt23_2 Pt23_6 2.805967 1_455
Pt23_3 Zn22_1 2.645993 1_565
Pt23_3 Zn22_5 2.645993 1_565
Pt23_3 Zn33_7 2.655393 1_555
Pt23_3 Zn33_3 2.655393 1_555
Pt23_3 Zn16_7 2.659357 1_555
Pt23_3 Zn16_3 2.659357 1_555
Pt23_3 Zn26_7 2.671243 1_555
Pt23_3 Zn26_3 2.671243 1_555
Pt23_3 Pt23_7 2.805967 1_555
Pt23_3 Pt23_7 2.805967 1_455
Pt23_4 Zn22_6 2.645993 1_555
Pt23_4 Zn22_2 2.645993 1_655
Pt23_4 Zn33_4 2.655393 1_555
Pt23_4 Zn33_0 2.655393 1_655
Pt23_4 Zn16_4 2.659357 1_555
Pt23_4 Zn16_0 2.659357 1_655
Pt23_4 Zn26_4 2.671243 1_555
Pt23_4 Zn26_0 2.671243 1_655
Pt23_5 Zn22_7 2.645993 1_555
Pt23_5 Zn22_3 2.645993 1_655
Pt23_5 Zn33_5 2.655393 1_555
Pt23_5 Zn33_1 2.655393 1_655
Pt23_5 Zn16_5 2.659357 1_555
Pt23_5 Zn16_1 2.659357 1_655
Pt23_5 Zn26_5 2.671243 1_555
Pt23_5 Zn26_1 2.671243 1_655
Pt23_6 Zn22_4 2.645993 1_565
Pt23_6 Zn22_0 2.645993 1_665
Pt23_6 Zn33_6 2.655393 1_555
Pt23_6 Zn33_2 2.655393 1_655
Pt23_6 Zn16_6 2.659357 1_555
Pt23_6 Zn16_2 2.659357 1_655
Pt23_6 Zn26_6 2.671243 1_555
Pt23_6 Zn26_2 2.671243 1_655
Pt23_7 Zn22_5 2.645993 1_565
Pt23_7 Zn22_1 2.645993 1_665
Pt23_7 Zn33_7 2.655393 1_555
Pt23_7 Zn33_3 2.655393 1_655
Pt23_7 Zn16_7 2.659357 1_555
Pt23_7 Zn16_3 2.659357 1_655
Pt23_7 Zn26_7 2.671243 1_555
Pt23_7 Zn26_3 2.671243 1_655
Pt24_0 Zn29_0 2.645993 1_555
Pt24_0 Zn29_4 2.645993 1_555
Pt24_0 Zn43_4 2.655393 1_555
Pt24_0 Zn43_0 2.655393 1_555
Pt24_0 Zn27_0 2.659357 1_555
Pt24_0 Zn27_4 2.659357 1_555
Pt24_0 Zn9_0 2.671243 1_555
Pt24_0 Zn9_4 2.671243 1_555
Pt24_0 Pt24_4 2.805967 1_555
Pt24_0 Pt24_4 2.805967 1_455
Pt24_1 Zn29_5 2.645993 1_555
Pt24_1 Zn29_1 2.645993 1_555
Pt24_1 Zn43_1 2.655393 1_555
Pt24_1 Zn43_5 2.655393 1_555
Pt24_1 Zn27_1 2.659357 1_555
Pt24_1 Zn27_5 2.659357 1_555
Pt24_1 Zn9_5 2.671243 1_555
Pt24_1 Zn9_1 2.671243 1_555
Pt24_1 Pt24_5 2.805967 1_555
Pt24_1 Pt24_5 2.805967 1_455
Pt24_2 Zn29_6 2.645993 1_555
Pt24_2 Zn29_2 2.645993 1_555
Pt24_2 Zn43_6 2.655393 1_555
Pt24_2 Zn43_2 2.655393 1_555
Pt24_2 Zn27_2 2.659357 1_555
Pt24_2 Zn27_6 2.659357 1_555
Pt24_2 Zn9_6 2.671243 1_555
Pt24_2 Zn9_2 2.671243 1_555
Pt24_2 Pt24_6 2.805967 1_555
Pt24_2 Pt24_6 2.805967 1_455
Pt24_3 Zn29_3 2.645993 1_555
Pt24_3 Zn29_7 2.645993 1_555
Pt24_3 Zn43_3 2.655393 1_555
Pt24_3 Zn43_7 2.655393 1_555
Pt24_3 Zn27_3 2.659357 1_555
Pt24_3 Zn27_7 2.659357 1_555
Pt24_3 Zn9_3 2.671243 1_555
Pt24_3 Zn9_7 2.671243 1_555
Pt24_3 Pt24_7 2.805967 1_555
Pt24_3 Pt24_7 2.805967 1_455
Pt24_4 Zn29_4 2.645993 1_555
Pt24_4 Zn29_0 2.645993 1_655
Pt24_4 Zn43_4 2.655393 1_555
Pt24_4 Zn43_0 2.655393 1_655
Pt24_4 Zn27_4 2.659357 1_555
Pt24_4 Zn27_0 2.659357 1_655
Pt24_4 Zn9_4 2.671243 1_555
Pt24_4 Zn9_0 2.671243 1_655
Pt24_5 Zn29_5 2.645993 1_555
Pt24_5 Zn29_1 2.645993 1_655
Pt24_5 Zn43_5 2.655393 1_555
Pt24_5 Zn43_1 2.655393 1_655
Pt24_5 Zn27_5 2.659357 1_555
Pt24_5 Zn27_1 2.659357 1_655
Pt24_5 Zn9_5 2.671243 1_555
Pt24_5 Zn9_1 2.671243 1_655
Pt24_6 Zn29_6 2.645993 1_555
Pt24_6 Zn29_2 2.645993 1_655
Pt24_6 Zn43_6 2.655393 1_555
Pt24_6 Zn43_2 2.655393 1_655
Pt24_6 Zn27_6 2.659357 1_555
Pt24_6 Zn27_2 2.659357 1_655
Pt24_6 Zn9_6 2.671243 1_555
Pt24_6 Zn9_2 2.671243 1_655
Pt24_7 Zn29_7 2.645993 1_555
Pt24_7 Zn29_3 2.645993 1_655
Pt24_7 Zn43_7 2.655393 1_555
Pt24_7 Zn43_3 2.655393 1_655
Pt24_7 Zn27_7 2.659357 1_555
Pt24_7 Zn27_3 2.659357 1_655
Pt24_7 Zn9_7 2.671243 1_555
Pt24_7 Zn9_3 2.671243 1_655
Pt25_0 Zn31_4 2.654412 1_555
Pt25_0 Zn31_0 2.654412 1_555
Pt25_0 Zn22_0 2.682350 1_555
Pt25_0 Zn22_4 2.682350 1_555
Pt25_0 Zn19_4 2.686155 1_555
Pt25_0 Zn19_0 2.686155 1_555
Pt25_0 Zn16_0 2.703560 1_555
Pt25_0 Zn16_4 2.703560 1_555
Pt25_0 Pt25_4 2.805967 1_555
Pt25_0 Pt25_4 2.805967 1_455
Pt25_0 Zn33_0 2.939151 1_555
Pt25_0 Zn33_4 2.939151 1_555
Pt25_1 Zn31_1 2.654412 1_555
Pt25_1 Zn31_5 2.654412 1_555
Pt25_1 Zn22_1 2.682350 1_555
Pt25_1 Zn22_5 2.682350 1_555
Pt25_1 Zn19_1 2.686155 1_555
Pt25_1 Zn19_5 2.686155 1_555
Pt25_1 Zn16_5 2.703560 1_555
Pt25_1 Zn16_1 2.703560 1_555
Pt25_1 Pt25_5 2.805967 1_555
Pt25_1 Pt25_5 2.805967 1_455
Pt25_1 Zn33_1 2.939151 1_555
Pt25_1 Zn33_5 2.939151 1_555
Pt25_2 Zn31_2 2.654412 1_555
Pt25_2 Zn31_6 2.654412 1_555
Pt25_2 Zn22_2 2.682350 1_555
Pt25_2 Zn22_6 2.682350 1_555
Pt25_2 Zn19_2 2.686155 1_555
Pt25_2 Zn19_6 2.686155 1_555
Pt25_2 Zn16_2 2.703560 1_555
Pt25_2 Zn16_6 2.703560 1_555
Pt25_2 Pt25_6 2.805967 1_555
Pt25_2 Pt25_6 2.805967 1_455
Pt25_2 Zn33_2 2.939151 1_555
Pt25_2 Zn33_6 2.939151 1_555
Pt25_3 Zn31_3 2.654412 1_555
Pt25_3 Zn31_7 2.654412 1_555
Pt25_3 Zn22_3 2.682350 1_555
Pt25_3 Zn22_7 2.682350 1_555
Pt25_3 Zn19_7 2.686155 1_555
Pt25_3 Zn19_3 2.686155 1_555
Pt25_3 Zn16_3 2.703560 1_555
Pt25_3 Zn16_7 2.703560 1_555
Pt25_3 Pt25_7 2.805967 1_555
Pt25_3 Pt25_7 2.805967 1_455
Pt25_3 Zn33_3 2.939151 1_555
Pt25_3 Zn33_7 2.939151 1_555
Pt25_4 Zn31_4 2.654412 1_555
Pt25_4 Zn31_0 2.654412 1_655
Pt25_4 Zn22_4 2.682350 1_555
Pt25_4 Zn22_0 2.682350 1_655
Pt25_4 Zn19_4 2.686155 1_555
Pt25_4 Zn19_0 2.686155 1_655
Pt25_4 Zn16_4 2.703560 1_555
Pt25_4 Zn16_0 2.703560 1_655
Pt25_4 Zn33_4 2.939151 1_555
Pt25_4 Zn33_0 2.939151 1_655
Pt25_5 Zn31_5 2.654412 1_555
Pt25_5 Zn31_1 2.654412 1_655
Pt25_5 Zn22_5 2.682350 1_555
Pt25_5 Zn22_1 2.682350 1_655
Pt25_5 Zn19_5 2.686155 1_555
Pt25_5 Zn19_1 2.686155 1_655
Pt25_5 Zn16_1 2.703560 1_655
Pt25_5 Zn16_5 2.703560 1_555
Pt25_5 Zn33_5 2.939151 1_555
Pt25_5 Zn33_1 2.939151 1_655
Pt25_6 Zn31_6 2.654412 1_555
Pt25_6 Zn31_2 2.654412 1_655
Pt25_6 Zn22_6 2.682350 1_555
Pt25_6 Zn22_2 2.682350 1_655
Pt25_6 Zn19_6 2.686155 1_555
Pt25_6 Zn19_2 2.686155 1_655
Pt25_6 Zn16_6 2.703560 1_555
Pt25_6 Zn16_2 2.703560 1_655
Pt25_6 Zn33_6 2.939151 1_555
Pt25_6 Zn33_2 2.939151 1_655
Pt25_7 Zn31_7 2.654412 1_555
Pt25_7 Zn31_3 2.654412 1_655
Pt25_7 Zn22_7 2.682350 1_555
Pt25_7 Zn22_3 2.682350 1_655
Pt25_7 Zn19_7 2.686155 1_555
Pt25_7 Zn19_3 2.686155 1_655
Pt25_7 Zn16_7 2.703560 1_555
Pt25_7 Zn16_3 2.703560 1_655
Pt25_7 Zn33_3 2.939151 1_655
Pt25_7 Zn33_7 2.939151 1_555
Pt26_0 Zn17_0 2.647605 1_555
Pt26_0 Zn17_4 2.647605 1_555
Pt26_0 Zn0_4 2.681420 1_555
Pt26_0 Zn0_0 2.681420 1_555
Pt26_0 Zn30_0 2.682656 1_555
Pt26_0 Zn30_4 2.682656 1_555
Pt26_0 Zn6_0 2.692052 1_555
Pt26_0 Zn6_4 2.692052 1_555
Pt26_0 Pt26_4 2.805967 1_555
Pt26_0 Pt26_4 2.805967 1_455
Pt26_0 Zn14_4 2.959073 1_555
Pt26_0 Zn14_0 2.959073 1_555
Pt26_1 Zn17_5 2.647605 1_555
Pt26_1 Zn17_1 2.647605 1_555
Pt26_1 Zn0_5 2.681420 1_555
Pt26_1 Zn0_1 2.681420 1_555
Pt26_1 Zn30_1 2.682656 1_555
Pt26_1 Zn30_5 2.682656 1_555
Pt26_1 Zn6_1 2.692052 1_555
Pt26_1 Zn6_5 2.692052 1_555
Pt26_1 Pt26_5 2.805967 1_555
Pt26_1 Pt26_5 2.805967 1_455
Pt26_1 Zn14_1 2.959073 1_555
Pt26_1 Zn14_5 2.959073 1_555
Pt26_2 Zn17_2 2.647605 1_555
Pt26_2 Zn17_6 2.647605 1_555
Pt26_2 Zn0_2 2.681420 1_555
Pt26_2 Zn0_6 2.681420 1_555
Pt26_2 Zn30_2 2.682656 1_555
Pt26_2 Zn30_6 2.682656 1_555
Pt26_2 Zn6_2 2.692052 1_555
Pt26_2 Zn6_6 2.692052 1_555
Pt26_2 Pt26_6 2.805967 1_555
Pt26_2 Pt26_6 2.805967 1_455
Pt26_2 Zn14_2 2.959073 1_555
Pt26_2 Zn14_6 2.959073 1_555
Pt26_3 Zn17_3 2.647605 1_555
Pt26_3 Zn17_7 2.647605 1_555
Pt26_3 Zn0_7 2.681420 1_555
Pt26_3 Zn0_3 2.681420 1_555
Pt26_3 Zn30_3 2.682656 1_555
Pt26_3 Zn30_7 2.682656 1_555
Pt26_3 Zn6_3 2.692052 1_555
Pt26_3 Zn6_7 2.692052 1_555
Pt26_3 Pt26_7 2.805967 1_555
Pt26_3 Pt26_7 2.805967 1_455
Pt26_3 Zn14_3 2.959073 1_555
Pt26_3 Zn14_7 2.959073 1_555
Pt26_4 Zn17_4 2.647605 1_555
Pt26_4 Zn17_0 2.647605 1_655
Pt26_4 Zn0_4 2.681420 1_555
Pt26_4 Zn0_0 2.681420 1_655
Pt26_4 Zn30_0 2.682656 1_655
Pt26_4 Zn30_4 2.682656 1_555
Pt26_4 Zn6_4 2.692052 1_555
Pt26_4 Zn6_0 2.692052 1_655
Pt26_4 Zn14_4 2.959073 1_555
Pt26_4 Zn14_0 2.959073 1_655
Pt26_5 Zn17_5 2.647605 1_555
Pt26_5 Zn17_1 2.647605 1_655
Pt26_5 Zn0_5 2.681420 1_555
Pt26_5 Zn0_1 2.681420 1_655
Pt26_5 Zn30_5 2.682656 1_555
Pt26_5 Zn30_1 2.682656 1_655
Pt26_5 Zn6_5 2.692052 1_555
Pt26_5 Zn6_1 2.692052 1_655
Pt26_5 Zn14_5 2.959073 1_555
Pt26_5 Zn14_1 2.959073 1_655
Pt26_6 Zn17_6 2.647605 1_555
Pt26_6 Zn17_2 2.647605 1_655
Pt26_6 Zn0_6 2.681420 1_555
Pt26_6 Zn0_2 2.681420 1_655
Pt26_6 Zn30_6 2.682656 1_555
Pt26_6 Zn30_2 2.682656 1_655
Pt26_6 Zn6_6 2.692052 1_555
Pt26_6 Zn6_2 2.692052 1_655
Pt26_6 Zn14_6 2.959073 1_555
Pt26_6 Zn14_2 2.959073 1_655
Pt26_7 Zn17_7 2.647605 1_555
Pt26_7 Zn17_3 2.647605 1_655
Pt26_7 Zn0_7 2.681420 1_555
Pt26_7 Zn0_3 2.681420 1_655
Pt26_7 Zn30_7 2.682656 1_555
Pt26_7 Zn30_3 2.682656 1_655
Pt26_7 Zn6_7 2.692052 1_555
Pt26_7 Zn6_3 2.692052 1_655
Pt26_7 Zn14_7 2.959073 1_555
Pt26_7 Zn14_3 2.959073 1_655
Pt27_0 Zn17_0 2.649929 1_555
Pt27_0 Zn17_4 2.649929 1_555
Pt27_0 Zn5_0 2.688466 1_555
Pt27_0 Zn5_4 2.688466 1_555
Pt27_0 Zn14_2 2.690186 1_545
Pt27_0 Zn14_6 2.690186 1_545
Pt27_0 Zn0_2 2.717730 1_545
Pt27_0 Zn0_6 2.717730 1_545
Pt27_0 Pt27_4 2.805967 1_555
Pt27_0 Pt27_4 2.805967 1_455
Pt27_0 Zn40_2 2.930623 1_545
Pt27_0 Zn40_6 2.930623 1_545
Pt27_1 Zn17_1 2.649929 1_555
Pt27_1 Zn17_5 2.649929 1_555
Pt27_1 Zn5_1 2.688466 1_555
Pt27_1 Zn5_5 2.688466 1_555
Pt27_1 Zn14_3 2.690186 1_545
Pt27_1 Zn14_7 2.690186 1_545
Pt27_1 Zn0_3 2.717730 1_545
Pt27_1 Zn0_7 2.717730 1_545
Pt27_1 Pt27_5 2.805967 1_555
Pt27_1 Pt27_5 2.805967 1_455
Pt27_1 Zn40_7 2.930623 1_545
Pt27_1 Zn40_3 2.930623 1_545
Pt27_2 Zn17_6 2.649929 1_555
Pt27_2 Zn17_2 2.649929 1_555
Pt27_2 Zn5_6 2.688466 1_555
Pt27_2 Zn5_2 2.688466 1_555
Pt27_2 Zn14_0 2.690186 1_555
Pt27_2 Zn14_4 2.690186 1_555
Pt27_2 Zn0_4 2.717730 1_555
Pt27_2 Zn0_0 2.717730 1_555
Pt27_2 Pt27_6 2.805967 1_555
Pt27_2 Pt27_6 2.805967 1_455
Pt27_2 Zn40_0 2.930623 1_555
Pt27_2 Zn40_4 2.930623 1_555
Pt27_3 Zn17_3 2.649929 1_555
Pt27_3 Zn17_7 2.649929 1_555
Pt27_3 Zn5_3 2.688466 1_555
Pt27_3 Zn5_7 2.688466 1_555
Pt27_3 Zn14_5 2.690186 1_555
Pt27_3 Zn14_1 2.690186 1_555
Pt27_3 Zn0_1 2.717730 1_555
Pt27_3 Zn0_5 2.717730 1_555
Pt27_3 Pt27_7 2.805967 1_555
Pt27_3 Pt27_7 2.805967 1_455
Pt27_3 Zn40_1 2.930623 1_555
Pt27_3 Zn40_5 2.930623 1_555
Pt27_4 Zn17_4 2.649929 1_555
Pt27_4 Zn17_0 2.649929 1_655
Pt27_4 Zn5_4 2.688466 1_555
Pt27_4 Zn5_0 2.688466 1_655
Pt27_4 Zn14_6 2.690186 1_545
Pt27_4 Zn14_2 2.690186 1_645
Pt27_4 Zn0_6 2.717730 1_545
Pt27_4 Zn0_2 2.717730 1_645
Pt27_4 Zn40_2 2.930623 1_645
Pt27_4 Zn40_6 2.930623 1_545
Pt27_5 Zn17_5 2.649929 1_555
Pt27_5 Zn17_1 2.649929 1_655
Pt27_5 Zn5_5 2.688466 1_555
Pt27_5 Zn5_1 2.688466 1_655
Pt27_5 Zn14_7 2.690186 1_545
Pt27_5 Zn14_3 2.690186 1_645
Pt27_5 Zn0_7 2.717730 1_545
Pt27_5 Zn0_3 2.717730 1_645
Pt27_5 Zn40_7 2.930623 1_545
Pt27_5 Zn40_3 2.930623 1_645
Pt27_6 Zn17_6 2.649929 1_555
Pt27_6 Zn17_2 2.649929 1_655
Pt27_6 Zn5_6 2.688466 1_555
Pt27_6 Zn5_2 2.688466 1_655
Pt27_6 Zn14_4 2.690186 1_555
Pt27_6 Zn14_0 2.690186 1_655
Pt27_6 Zn0_4 2.717730 1_555
Pt27_6 Zn0_0 2.717730 1_655
Pt27_6 Zn40_0 2.930623 1_655
Pt27_6 Zn40_4 2.930623 1_555
Pt27_7 Zn17_3 2.649929 1_655
Pt27_7 Zn17_7 2.649929 1_555
Pt27_7 Zn5_7 2.688466 1_555
Pt27_7 Zn5_3 2.688466 1_655
Pt27_7 Zn14_5 2.690186 1_555
Pt27_7 Zn14_1 2.690186 1_655
Pt27_7 Zn0_5 2.717730 1_555
Pt27_7 Zn0_1 2.717730 1_655
Pt27_7 Zn40_5 2.930623 1_555
Pt27_7 Zn40_1 2.930623 1_655
Pt28_0 Zn24_2 2.634495 1_555
Pt28_0 Zn24_6 2.634495 1_555
Pt28_0 Zn38_0 2.686545 1_555
Pt28_0 Zn38_4 2.686545 1_555
Pt28_0 Zn43_2 2.711725 1_555
Pt28_0 Zn43_6 2.711725 1_555
Pt28_0 Zn29_0 2.716201 1_555
Pt28_0 Zn29_4 2.716201 1_555
Pt28_0 Pt28_4 2.805967 1_555
Pt28_0 Pt28_4 2.805967 1_455
Pt28_0 Zn9_4 2.885807 1_555
Pt28_0 Zn9_0 2.885807 1_555
Pt28_1 Zn24_7 2.634495 1_555
Pt28_1 Zn24_3 2.634495 1_555
Pt28_1 Zn38_1 2.686545 1_555
Pt28_1 Zn38_5 2.686545 1_555
Pt28_1 Zn43_7 2.711725 1_555
Pt28_1 Zn43_3 2.711725 1_555
Pt28_1 Zn29_5 2.716201 1_555
Pt28_1 Zn29_1 2.716201 1_555
Pt28_1 Pt28_5 2.805967 1_555
Pt28_1 Pt28_5 2.805967 1_455
Pt28_1 Zn9_5 2.885807 1_555
Pt28_1 Zn9_1 2.885807 1_555
Pt28_2 Zn24_0 2.634495 1_565
Pt28_2 Zn24_4 2.634495 1_565
Pt28_2 Zn38_2 2.686545 1_555
Pt28_2 Zn38_6 2.686545 1_555
Pt28_2 Zn43_0 2.711725 1_565
Pt28_2 Zn43_4 2.711725 1_565
Pt28_2 Zn29_2 2.716201 1_555
Pt28_2 Zn29_6 2.716201 1_555
Pt28_2 Pt28_6 2.805967 1_555
Pt28_2 Pt28_6 2.805967 1_455
Pt28_2 Zn9_6 2.885807 1_555
Pt28_2 Zn9_2 2.885807 1_555
Pt28_3 Zn24_5 2.634495 1_565
Pt28_3 Zn24_1 2.634495 1_565
Pt28_3 Zn38_3 2.686545 1_555
Pt28_3 Zn38_7 2.686545 1_555
Pt28_3 Zn43_1 2.711725 1_565
Pt28_3 Zn43_5 2.711725 1_565
Pt28_3 Zn29_7 2.716201 1_555
Pt28_3 Zn29_3 2.716201 1_555
Pt28_3 Pt28_7 2.805967 1_555
Pt28_3 Pt28_7 2.805967 1_455
Pt28_3 Zn9_3 2.885807 1_555
Pt28_3 Zn9_7 2.885807 1_555
Pt28_4 Zn24_6 2.634495 1_555
Pt28_4 Zn24_2 2.634495 1_655
Pt28_4 Zn38_4 2.686545 1_555
Pt28_4 Zn38_0 2.686545 1_655
Pt28_4 Zn43_6 2.711725 1_555
Pt28_4 Zn43_2 2.711725 1_655
Pt28_4 Zn29_4 2.716201 1_555
Pt28_4 Zn29_0 2.716201 1_655
Pt28_4 Zn9_0 2.885807 1_655
Pt28_4 Zn9_4 2.885807 1_555
Pt28_5 Zn24_7 2.634495 1_555
Pt28_5 Zn24_3 2.634495 1_655
Pt28_5 Zn38_5 2.686545 1_555
Pt28_5 Zn38_1 2.686545 1_655
Pt28_5 Zn43_7 2.711725 1_555
Pt28_5 Zn43_3 2.711725 1_655
Pt28_5 Zn29_5 2.716201 1_555
Pt28_5 Zn29_1 2.716201 1_655
Pt28_5 Zn9_5 2.885807 1_555
Pt28_5 Zn9_1 2.885807 1_655
Pt28_6 Zn24_4 2.634495 1_565
Pt28_6 Zn24_0 2.634495 1_665
Pt28_6 Zn38_6 2.686545 1_555
Pt28_6 Zn38_2 2.686545 1_655
Pt28_6 Zn43_4 2.711725 1_565
Pt28_6 Zn43_0 2.711725 1_665
Pt28_6 Zn29_6 2.716201 1_555
Pt28_6 Zn29_2 2.716201 1_655
Pt28_6 Zn9_6 2.885807 1_555
Pt28_6 Zn9_2 2.885807 1_655
Pt28_7 Zn24_5 2.634495 1_565
Pt28_7 Zn24_1 2.634495 1_665
Pt28_7 Zn38_7 2.686545 1_555
Pt28_7 Zn38_3 2.686545 1_655
Pt28_7 Zn43_5 2.711725 1_565
Pt28_7 Zn43_1 2.711725 1_665
Pt28_7 Zn29_7 2.716201 1_555
Pt28_7 Zn29_3 2.716201 1_655
Pt28_7 Zn9_7 2.885807 1_555
Pt28_7 Zn9_3 2.885807 1_655
