# generated using pymatgen
data_Zr8As5
_symmetry_space_group_name_H-M   'P 1'
_cell_length_a   7.49851200
_cell_length_b   20.47536800
_cell_length_c   57.65109143
_cell_angle_alpha   89.16096101
_cell_angle_beta   90.00000000
_cell_angle_gamma   90.00000000
_symmetry_Int_Tables_number   1
_chemical_formula_structural   Zr8As5
_chemical_formula_sum   'Zr256 As160'
_cell_volume   8850.49930432
_cell_formula_units_Z   32
loop_
 _symmetry_equiv_pos_site_id
 _symmetry_equiv_pos_as_xyz
  1  'x, y, z'
loop_
 _atom_site_type_symbol
 _atom_site_label
 _atom_site_symmetry_multiplicity
 _atom_site_fract_x
 _atom_site_fract_y
 _atom_site_fract_z
 _atom_site_occupancy
  Zr  Zr0_0  1  0.25000000  0.12421800  0.49437800  1
  Zr  Zr0_1  1  0.25000000  0.12421800  0.99437800  1
  Zr  Zr0_2  1  0.25000000  0.62421800  0.49437800  1
  Zr  Zr0_3  1  0.25000000  0.62421800  0.99437800  1
  Zr  Zr0_4  1  0.75000000  0.12421800  0.49437800  1
  Zr  Zr0_5  1  0.75000000  0.12421800  0.99437800  1
  Zr  Zr0_6  1  0.75000000  0.62421800  0.49437800  1
  Zr  Zr0_7  1  0.75000000  0.62421800  0.99437800  1
  Zr  Zr1_0  1  0.25000000  0.37578200  0.00562200  1
  Zr  Zr1_1  1  0.25000000  0.37578200  0.50562200  1
  Zr  Zr1_2  1  0.25000000  0.87578200  0.00562200  1
  Zr  Zr1_3  1  0.25000000  0.87578200  0.50562200  1
  Zr  Zr1_4  1  0.75000000  0.37578200  0.00562200  1
  Zr  Zr1_5  1  0.75000000  0.37578200  0.50562200  1
  Zr  Zr1_6  1  0.75000000  0.87578200  0.00562200  1
  Zr  Zr1_7  1  0.75000000  0.87578200  0.50562200  1
  Zr  Zr2_0  1  0.25000000  0.10538150  0.24747150  1
  Zr  Zr2_1  1  0.25000000  0.10538150  0.74747150  1
  Zr  Zr2_2  1  0.25000000  0.60538150  0.24747150  1
  Zr  Zr2_3  1  0.25000000  0.60538150  0.74747150  1
  Zr  Zr2_4  1  0.75000000  0.10538150  0.24747150  1
  Zr  Zr2_5  1  0.75000000  0.10538150  0.74747150  1
  Zr  Zr2_6  1  0.75000000  0.60538150  0.24747150  1
  Zr  Zr2_7  1  0.75000000  0.60538150  0.74747150  1
  Zr  Zr3_0  1  0.25000000  0.39461850  0.25252850  1
  Zr  Zr3_1  1  0.25000000  0.39461850  0.75252850  1
  Zr  Zr3_2  1  0.25000000  0.89461850  0.25252850  1
  Zr  Zr3_3  1  0.25000000  0.89461850  0.75252850  1
  Zr  Zr3_4  1  0.75000000  0.39461850  0.25252850  1
  Zr  Zr3_5  1  0.75000000  0.39461850  0.75252850  1
  Zr  Zr3_6  1  0.75000000  0.89461850  0.25252850  1
  Zr  Zr3_7  1  0.75000000  0.89461850  0.75252850  1
  Zr  Zr4_0  1  0.25000000  0.24865100  0.38233500  1
  Zr  Zr4_1  1  0.25000000  0.24865100  0.88233500  1
  Zr  Zr4_2  1  0.25000000  0.74865100  0.38233500  1
  Zr  Zr4_3  1  0.25000000  0.74865100  0.88233500  1
  Zr  Zr4_4  1  0.75000000  0.24865100  0.38233500  1
  Zr  Zr4_5  1  0.75000000  0.24865100  0.88233500  1
  Zr  Zr4_6  1  0.75000000  0.74865100  0.38233500  1
  Zr  Zr4_7  1  0.75000000  0.74865100  0.88233500  1
  Zr  Zr5_0  1  0.25000000  0.25134900  0.11766500  1
  Zr  Zr5_1  1  0.25000000  0.25134900  0.61766500  1
  Zr  Zr5_2  1  0.25000000  0.75134900  0.11766500  1
  Zr  Zr5_3  1  0.25000000  0.75134900  0.61766500  1
  Zr  Zr5_4  1  0.75000000  0.25134900  0.11766500  1
  Zr  Zr5_5  1  0.75000000  0.25134900  0.61766500  1
  Zr  Zr5_6  1  0.75000000  0.75134900  0.11766500  1
  Zr  Zr5_7  1  0.75000000  0.75134900  0.61766500  1
  Zr  Zr6_0  1  0.25000000  0.00106750  0.13241300  1
  Zr  Zr6_1  1  0.25000000  0.00106750  0.63241300  1
  Zr  Zr6_2  1  0.25000000  0.50106750  0.13241300  1
  Zr  Zr6_3  1  0.25000000  0.50106750  0.63241300  1
  Zr  Zr6_4  1  0.75000000  0.00106750  0.13241300  1
  Zr  Zr6_5  1  0.75000000  0.00106750  0.63241300  1
  Zr  Zr6_6  1  0.75000000  0.50106750  0.13241300  1
  Zr  Zr6_7  1  0.75000000  0.50106750  0.63241300  1
  Zr  Zr7_0  1  0.25000000  0.49893250  0.36758700  1
  Zr  Zr7_1  1  0.25000000  0.49893250  0.86758700  1
  Zr  Zr7_2  1  0.25000000  0.99893250  0.36758700  1
  Zr  Zr7_3  1  0.25000000  0.99893250  0.86758700  1
  Zr  Zr7_4  1  0.75000000  0.49893250  0.36758700  1
  Zr  Zr7_5  1  0.75000000  0.49893250  0.86758700  1
  Zr  Zr7_6  1  0.75000000  0.99893250  0.36758700  1
  Zr  Zr7_7  1  0.75000000  0.99893250  0.86758700  1
  Zr  Zr8_0  1  0.00000000  0.12520150  0.35827800  1
  Zr  Zr8_1  1  0.00000000  0.12520150  0.85827800  1
  Zr  Zr8_2  1  0.00000000  0.62520150  0.35827800  1
  Zr  Zr8_3  1  0.00000000  0.62520150  0.85827800  1
  Zr  Zr8_4  1  0.50000000  0.12520150  0.35827800  1
  Zr  Zr8_5  1  0.50000000  0.12520150  0.85827800  1
  Zr  Zr8_6  1  0.50000000  0.62520150  0.35827800  1
  Zr  Zr8_7  1  0.50000000  0.62520150  0.85827800  1
  Zr  Zr9_0  1  0.00000000  0.37479850  0.14172200  1
  Zr  Zr9_1  1  0.00000000  0.37479850  0.64172200  1
  Zr  Zr9_2  1  0.00000000  0.87479850  0.14172200  1
  Zr  Zr9_3  1  0.00000000  0.87479850  0.64172200  1
  Zr  Zr9_4  1  0.50000000  0.37479850  0.14172200  1
  Zr  Zr9_5  1  0.50000000  0.37479850  0.64172200  1
  Zr  Zr9_6  1  0.50000000  0.87479850  0.14172200  1
  Zr  Zr9_7  1  0.50000000  0.87479850  0.64172200  1
  Zr  Zr10_0  1  0.00000000  0.12590700  0.10805050  1
  Zr  Zr10_1  1  0.00000000  0.12590700  0.60805050  1
  Zr  Zr10_2  1  0.00000000  0.62590700  0.10805050  1
  Zr  Zr10_3  1  0.00000000  0.62590700  0.60805050  1
  Zr  Zr10_4  1  0.50000000  0.12590700  0.10805050  1
  Zr  Zr10_5  1  0.50000000  0.12590700  0.60805050  1
  Zr  Zr10_6  1  0.50000000  0.62590700  0.10805050  1
  Zr  Zr10_7  1  0.50000000  0.62590700  0.60805050  1
  Zr  Zr11_0  1  0.00000000  0.37409300  0.39194950  1
  Zr  Zr11_1  1  0.00000000  0.37409300  0.89194950  1
  Zr  Zr11_2  1  0.00000000  0.87409300  0.39194950  1
  Zr  Zr11_3  1  0.00000000  0.87409300  0.89194950  1
  Zr  Zr11_4  1  0.50000000  0.37409300  0.39194950  1
  Zr  Zr11_5  1  0.50000000  0.37409300  0.89194950  1
  Zr  Zr11_6  1  0.50000000  0.87409300  0.39194950  1
  Zr  Zr11_7  1  0.50000000  0.87409300  0.89194950  1
  Zr  Zr12_0  1  0.25000000  0.24828550  0.29053850  1
  Zr  Zr12_1  1  0.25000000  0.24828550  0.79053850  1
  Zr  Zr12_2  1  0.25000000  0.74828550  0.29053850  1
  Zr  Zr12_3  1  0.25000000  0.74828550  0.79053850  1
  Zr  Zr12_4  1  0.75000000  0.24828550  0.29053850  1
  Zr  Zr12_5  1  0.75000000  0.24828550  0.79053850  1
  Zr  Zr12_6  1  0.75000000  0.74828550  0.29053850  1
  Zr  Zr12_7  1  0.75000000  0.74828550  0.79053850  1
  Zr  Zr13_0  1  0.25000000  0.25171450  0.20946150  1
  Zr  Zr13_1  1  0.25000000  0.25171450  0.70946150  1
  Zr  Zr13_2  1  0.25000000  0.75171450  0.20946150  1
  Zr  Zr13_3  1  0.25000000  0.75171450  0.70946150  1
  Zr  Zr13_4  1  0.75000000  0.25171450  0.20946150  1
  Zr  Zr13_5  1  0.75000000  0.25171450  0.70946150  1
  Zr  Zr13_6  1  0.75000000  0.75171450  0.20946150  1
  Zr  Zr13_7  1  0.75000000  0.75171450  0.70946150  1
  Zr  Zr14_0  1  0.25000000  0.00836450  0.04142150  1
  Zr  Zr14_1  1  0.25000000  0.00836450  0.54142150  1
  Zr  Zr14_2  1  0.25000000  0.50836450  0.04142150  1
  Zr  Zr14_3  1  0.25000000  0.50836450  0.54142150  1
  Zr  Zr14_4  1  0.75000000  0.00836450  0.04142150  1
  Zr  Zr14_5  1  0.75000000  0.00836450  0.54142150  1
  Zr  Zr14_6  1  0.75000000  0.50836450  0.04142150  1
  Zr  Zr14_7  1  0.75000000  0.50836450  0.54142150  1
  Zr  Zr15_0  1  0.25000000  0.49163550  0.45857850  1
  Zr  Zr15_1  1  0.25000000  0.49163550  0.95857850  1
  Zr  Zr15_2  1  0.25000000  0.99163550  0.45857850  1
  Zr  Zr15_3  1  0.25000000  0.99163550  0.95857850  1
  Zr  Zr15_4  1  0.75000000  0.49163550  0.45857850  1
  Zr  Zr15_5  1  0.75000000  0.49163550  0.95857850  1
  Zr  Zr15_6  1  0.75000000  0.99163550  0.45857850  1
  Zr  Zr15_7  1  0.75000000  0.99163550  0.95857850  1
  Zr  Zr16_0  1  0.00000000  0.04244250  0.41421200  1
  Zr  Zr16_1  1  0.00000000  0.04244250  0.91421200  1
  Zr  Zr16_2  1  0.00000000  0.54244250  0.41421200  1
  Zr  Zr16_3  1  0.00000000  0.54244250  0.91421200  1
  Zr  Zr16_4  1  0.50000000  0.04244250  0.41421200  1
  Zr  Zr16_5  1  0.50000000  0.04244250  0.91421200  1
  Zr  Zr16_6  1  0.50000000  0.54244250  0.41421200  1
  Zr  Zr16_7  1  0.50000000  0.54244250  0.91421200  1
  Zr  Zr17_0  1  0.00000000  0.45755750  0.08578800  1
  Zr  Zr17_1  1  0.00000000  0.45755750  0.58578800  1
  Zr  Zr17_2  1  0.00000000  0.95755750  0.08578800  1
  Zr  Zr17_3  1  0.00000000  0.95755750  0.58578800  1
  Zr  Zr17_4  1  0.50000000  0.45755750  0.08578800  1
  Zr  Zr17_5  1  0.50000000  0.45755750  0.58578800  1
  Zr  Zr17_6  1  0.50000000  0.95755750  0.08578800  1
  Zr  Zr17_7  1  0.50000000  0.95755750  0.58578800  1
  Zr  Zr18_0  1  0.00000000  0.20361500  0.16479500  1
  Zr  Zr18_1  1  0.00000000  0.20361500  0.66479500  1
  Zr  Zr18_2  1  0.00000000  0.70361500  0.16479500  1
  Zr  Zr18_3  1  0.00000000  0.70361500  0.66479500  1
  Zr  Zr18_4  1  0.50000000  0.20361500  0.16479500  1
  Zr  Zr18_5  1  0.50000000  0.20361500  0.66479500  1
  Zr  Zr18_6  1  0.50000000  0.70361500  0.16479500  1
  Zr  Zr18_7  1  0.50000000  0.70361500  0.66479500  1
  Zr  Zr19_0  1  0.00000000  0.29638500  0.33520500  1
  Zr  Zr19_1  1  0.00000000  0.29638500  0.83520500  1
  Zr  Zr19_2  1  0.00000000  0.79638500  0.33520500  1
  Zr  Zr19_3  1  0.00000000  0.79638500  0.83520500  1
  Zr  Zr19_4  1  0.50000000  0.29638500  0.33520500  1
  Zr  Zr19_5  1  0.50000000  0.29638500  0.83520500  1
  Zr  Zr19_6  1  0.50000000  0.79638500  0.33520500  1
  Zr  Zr19_7  1  0.50000000  0.79638500  0.83520500  1
  Zr  Zr20_0  1  0.25000000  0.16823200  0.43674900  1
  Zr  Zr20_1  1  0.25000000  0.16823200  0.93674900  1
  Zr  Zr20_2  1  0.25000000  0.66823200  0.43674900  1
  Zr  Zr20_3  1  0.25000000  0.66823200  0.93674900  1
  Zr  Zr20_4  1  0.75000000  0.16823200  0.43674900  1
  Zr  Zr20_5  1  0.75000000  0.16823200  0.93674900  1
  Zr  Zr20_6  1  0.75000000  0.66823200  0.43674900  1
  Zr  Zr20_7  1  0.75000000  0.66823200  0.93674900  1
  Zr  Zr21_0  1  0.25000000  0.33176800  0.06325100  1
  Zr  Zr21_1  1  0.25000000  0.33176800  0.56325100  1
  Zr  Zr21_2  1  0.25000000  0.83176800  0.06325100  1
  Zr  Zr21_3  1  0.25000000  0.83176800  0.56325100  1
  Zr  Zr21_4  1  0.75000000  0.33176800  0.06325100  1
  Zr  Zr21_5  1  0.75000000  0.33176800  0.56325100  1
  Zr  Zr21_6  1  0.75000000  0.83176800  0.06325100  1
  Zr  Zr21_7  1  0.75000000  0.83176800  0.56325100  1
  Zr  Zr22_0  1  0.25000000  0.08104350  0.18654600  1
  Zr  Zr22_1  1  0.25000000  0.08104350  0.68654600  1
  Zr  Zr22_2  1  0.25000000  0.58104350  0.18654600  1
  Zr  Zr22_3  1  0.25000000  0.58104350  0.68654600  1
  Zr  Zr22_4  1  0.75000000  0.08104350  0.18654600  1
  Zr  Zr22_5  1  0.75000000  0.08104350  0.68654600  1
  Zr  Zr22_6  1  0.75000000  0.58104350  0.18654600  1
  Zr  Zr22_7  1  0.75000000  0.58104350  0.68654600  1
  Zr  Zr23_0  1  0.25000000  0.41895650  0.31345400  1
  Zr  Zr23_1  1  0.25000000  0.41895650  0.81345400  1
  Zr  Zr23_2  1  0.25000000  0.91895650  0.31345400  1
  Zr  Zr23_3  1  0.25000000  0.91895650  0.81345400  1
  Zr  Zr23_4  1  0.75000000  0.41895650  0.31345400  1
  Zr  Zr23_5  1  0.75000000  0.41895650  0.81345400  1
  Zr  Zr23_6  1  0.75000000  0.91895650  0.31345400  1
  Zr  Zr23_7  1  0.75000000  0.91895650  0.81345400  1
  Zr  Zr24_0  1  0.25000000  0.09007400  0.31067850  1
  Zr  Zr24_1  1  0.25000000  0.09007400  0.81067850  1
  Zr  Zr24_2  1  0.25000000  0.59007400  0.31067850  1
  Zr  Zr24_3  1  0.25000000  0.59007400  0.81067850  1
  Zr  Zr24_4  1  0.75000000  0.09007400  0.31067850  1
  Zr  Zr24_5  1  0.75000000  0.09007400  0.81067850  1
  Zr  Zr24_6  1  0.75000000  0.59007400  0.31067850  1
  Zr  Zr24_7  1  0.75000000  0.59007400  0.81067850  1
  Zr  Zr25_0  1  0.25000000  0.40992600  0.18932150  1
  Zr  Zr25_1  1  0.25000000  0.40992600  0.68932150  1
  Zr  Zr25_2  1  0.25000000  0.90992600  0.18932150  1
  Zr  Zr25_3  1  0.25000000  0.90992600  0.68932150  1
  Zr  Zr25_4  1  0.75000000  0.40992600  0.18932150  1
  Zr  Zr25_5  1  0.75000000  0.40992600  0.68932150  1
  Zr  Zr25_6  1  0.75000000  0.90992600  0.18932150  1
  Zr  Zr25_7  1  0.75000000  0.90992600  0.68932150  1
  Zr  Zr26_0  1  0.25000000  0.16403900  0.05906800  1
  Zr  Zr26_1  1  0.25000000  0.16403900  0.55906800  1
  Zr  Zr26_2  1  0.25000000  0.66403900  0.05906800  1
  Zr  Zr26_3  1  0.25000000  0.66403900  0.55906800  1
  Zr  Zr26_4  1  0.75000000  0.16403900  0.05906800  1
  Zr  Zr26_5  1  0.75000000  0.16403900  0.55906800  1
  Zr  Zr26_6  1  0.75000000  0.66403900  0.05906800  1
  Zr  Zr26_7  1  0.75000000  0.66403900  0.55906800  1
  Zr  Zr27_0  1  0.25000000  0.33596100  0.44093200  1
  Zr  Zr27_1  1  0.25000000  0.33596100  0.94093200  1
  Zr  Zr27_2  1  0.25000000  0.83596100  0.44093200  1
  Zr  Zr27_3  1  0.25000000  0.83596100  0.94093200  1
  Zr  Zr27_4  1  0.75000000  0.33596100  0.44093200  1
  Zr  Zr27_5  1  0.75000000  0.33596100  0.94093200  1
  Zr  Zr27_6  1  0.75000000  0.83596100  0.44093200  1
  Zr  Zr27_7  1  0.75000000  0.83596100  0.94093200  1
  Zr  Zr28_0  1  0.00000000  0.25000000  0.25000000  1
  Zr  Zr28_1  1  0.00000000  0.25000000  0.75000000  1
  Zr  Zr28_2  1  0.00000000  0.75000000  0.25000000  1
  Zr  Zr28_3  1  0.00000000  0.75000000  0.75000000  1
  Zr  Zr28_4  1  0.50000000  0.25000000  0.25000000  1
  Zr  Zr28_5  1  0.50000000  0.25000000  0.75000000  1
  Zr  Zr28_6  1  0.50000000  0.75000000  0.25000000  1
  Zr  Zr28_7  1  0.50000000  0.75000000  0.75000000  1
  Zr  Zr29_0  1  0.00000000  0.00000000  0.00000000  1
  Zr  Zr29_1  1  0.00000000  0.00000000  0.50000000  1
  Zr  Zr29_2  1  0.00000000  0.50000000  0.00000000  1
  Zr  Zr29_3  1  0.00000000  0.50000000  0.50000000  1
  Zr  Zr29_4  1  0.50000000  0.00000000  0.00000000  1
  Zr  Zr29_5  1  0.50000000  0.00000000  0.50000000  1
  Zr  Zr29_6  1  0.50000000  0.50000000  0.00000000  1
  Zr  Zr29_7  1  0.50000000  0.50000000  0.50000000  1
  Zr  Zr30_0  1  0.00000000  0.00099700  0.27862100  1
  Zr  Zr30_1  1  0.00000000  0.00099700  0.77862100  1
  Zr  Zr30_2  1  0.00000000  0.50099700  0.27862100  1
  Zr  Zr30_3  1  0.00000000  0.50099700  0.77862100  1
  Zr  Zr30_4  1  0.50000000  0.00099700  0.27862100  1
  Zr  Zr30_5  1  0.50000000  0.00099700  0.77862100  1
  Zr  Zr30_6  1  0.50000000  0.50099700  0.27862100  1
  Zr  Zr30_7  1  0.50000000  0.50099700  0.77862100  1
  Zr  Zr31_0  1  0.00000000  0.49900300  0.22137900  1
  Zr  Zr31_1  1  0.00000000  0.49900300  0.72137900  1
  Zr  Zr31_2  1  0.00000000  0.99900300  0.22137900  1
  Zr  Zr31_3  1  0.00000000  0.99900300  0.72137900  1
  Zr  Zr31_4  1  0.50000000  0.49900300  0.22137900  1
  Zr  Zr31_5  1  0.50000000  0.49900300  0.72137900  1
  Zr  Zr31_6  1  0.50000000  0.99900300  0.22137900  1
  Zr  Zr31_7  1  0.50000000  0.99900300  0.72137900  1
  As  As0_0  1  0.00000000  0.01017650  0.33107750  1
  As  As0_1  1  0.00000000  0.01017650  0.83107750  1
  As  As0_2  1  0.00000000  0.51017650  0.33107750  1
  As  As0_3  1  0.00000000  0.51017650  0.83107750  1
  As  As0_4  1  0.50000000  0.01017650  0.33107750  1
  As  As0_5  1  0.50000000  0.01017650  0.83107750  1
  As  As0_6  1  0.50000000  0.51017650  0.33107750  1
  As  As0_7  1  0.50000000  0.51017650  0.83107750  1
  As  As1_0  1  0.00000000  0.48982350  0.16892250  1
  As  As1_1  1  0.00000000  0.48982350  0.66892250  1
  As  As1_2  1  0.00000000  0.98982350  0.16892250  1
  As  As1_3  1  0.00000000  0.98982350  0.66892250  1
  As  As1_4  1  0.50000000  0.48982350  0.16892250  1
  As  As1_5  1  0.50000000  0.48982350  0.66892250  1
  As  As1_6  1  0.50000000  0.98982350  0.16892250  1
  As  As1_7  1  0.50000000  0.98982350  0.66892250  1
  As  As2_0  1  0.00000000  0.24082350  0.08136850  1
  As  As2_1  1  0.00000000  0.24082350  0.58136850  1
  As  As2_2  1  0.00000000  0.74082350  0.08136850  1
  As  As2_3  1  0.00000000  0.74082350  0.58136850  1
  As  As2_4  1  0.50000000  0.24082350  0.08136850  1
  As  As2_5  1  0.50000000  0.24082350  0.58136850  1
  As  As2_6  1  0.50000000  0.74082350  0.08136850  1
  As  As2_7  1  0.50000000  0.74082350  0.58136850  1
  As  As3_0  1  0.00000000  0.25917650  0.41863150  1
  As  As3_1  1  0.00000000  0.25917650  0.91863150  1
  As  As3_2  1  0.00000000  0.75917650  0.41863150  1
  As  As3_3  1  0.00000000  0.75917650  0.91863150  1
  As  As3_4  1  0.50000000  0.25917650  0.41863150  1
  As  As3_5  1  0.50000000  0.25917650  0.91863150  1
  As  As3_6  1  0.50000000  0.75917650  0.41863150  1
  As  As3_7  1  0.50000000  0.75917650  0.91863150  1
  As  As4_0  1  0.25000000  0.20025900  0.33574550  1
  As  As4_1  1  0.25000000  0.20025900  0.83574550  1
  As  As4_2  1  0.25000000  0.70025900  0.33574550  1
  As  As4_3  1  0.25000000  0.70025900  0.83574550  1
  As  As4_4  1  0.75000000  0.20025900  0.33574550  1
  As  As4_5  1  0.75000000  0.20025900  0.83574550  1
  As  As4_6  1  0.75000000  0.70025900  0.33574550  1
  As  As4_7  1  0.75000000  0.70025900  0.83574550  1
  As  As5_0  1  0.25000000  0.29974100  0.16425450  1
  As  As5_1  1  0.25000000  0.29974100  0.66425450  1
  As  As5_2  1  0.25000000  0.79974100  0.16425450  1
  As  As5_3  1  0.25000000  0.79974100  0.66425450  1
  As  As5_4  1  0.75000000  0.29974100  0.16425450  1
  As  As5_5  1  0.75000000  0.29974100  0.66425450  1
  As  As5_6  1  0.75000000  0.79974100  0.16425450  1
  As  As5_7  1  0.75000000  0.79974100  0.66425450  1
  As  As6_0  1  0.25000000  0.05401250  0.08549550  1
  As  As6_1  1  0.25000000  0.05401250  0.58549550  1
  As  As6_2  1  0.25000000  0.55401250  0.08549550  1
  As  As6_3  1  0.25000000  0.55401250  0.58549550  1
  As  As6_4  1  0.75000000  0.05401250  0.08549550  1
  As  As6_5  1  0.75000000  0.05401250  0.58549550  1
  As  As6_6  1  0.75000000  0.55401250  0.08549550  1
  As  As6_7  1  0.75000000  0.55401250  0.58549550  1
  As  As7_0  1  0.25000000  0.44598750  0.41450450  1
  As  As7_1  1  0.25000000  0.44598750  0.91450450  1
  As  As7_2  1  0.25000000  0.94598750  0.41450450  1
  As  As7_3  1  0.25000000  0.94598750  0.91450450  1
  As  As7_4  1  0.75000000  0.44598750  0.41450450  1
  As  As7_5  1  0.75000000  0.44598750  0.91450450  1
  As  As7_6  1  0.75000000  0.94598750  0.41450450  1
  As  As7_7  1  0.75000000  0.94598750  0.91450450  1
  As  As8_0  1  0.00000000  0.14371300  0.28053350  1
  As  As8_1  1  0.00000000  0.14371300  0.78053350  1
  As  As8_2  1  0.00000000  0.64371300  0.28053350  1
  As  As8_3  1  0.00000000  0.64371300  0.78053350  1
  As  As8_4  1  0.50000000  0.14371300  0.28053350  1
  As  As8_5  1  0.50000000  0.14371300  0.78053350  1
  As  As8_6  1  0.50000000  0.64371300  0.28053350  1
  As  As8_7  1  0.50000000  0.64371300  0.78053350  1
  As  As9_0  1  0.00000000  0.35628700  0.21946650  1
  As  As9_1  1  0.00000000  0.35628700  0.71946650  1
  As  As9_2  1  0.00000000  0.85628700  0.21946650  1
  As  As9_3  1  0.00000000  0.85628700  0.71946650  1
  As  As9_4  1  0.50000000  0.35628700  0.21946650  1
  As  As9_5  1  0.50000000  0.35628700  0.71946650  1
  As  As9_6  1  0.50000000  0.85628700  0.21946650  1
  As  As9_7  1  0.50000000  0.85628700  0.71946650  1
  As  As10_0  1  0.00000000  0.11028000  0.02940950  1
  As  As10_1  1  0.00000000  0.11028000  0.52940950  1
  As  As10_2  1  0.00000000  0.61028000  0.02940950  1
  As  As10_3  1  0.00000000  0.61028000  0.52940950  1
  As  As10_4  1  0.50000000  0.11028000  0.02940950  1
  As  As10_5  1  0.50000000  0.11028000  0.52940950  1
  As  As10_6  1  0.50000000  0.61028000  0.02940950  1
  As  As10_7  1  0.50000000  0.61028000  0.52940950  1
  As  As11_0  1  0.00000000  0.38972000  0.47059050  1
  As  As11_1  1  0.00000000  0.38972000  0.97059050  1
  As  As11_2  1  0.00000000  0.88972000  0.47059050  1
  As  As11_3  1  0.00000000  0.88972000  0.97059050  1
  As  As11_4  1  0.50000000  0.38972000  0.47059050  1
  As  As11_5  1  0.50000000  0.38972000  0.97059050  1
  As  As11_6  1  0.50000000  0.88972000  0.47059050  1
  As  As11_7  1  0.50000000  0.88972000  0.97059050  1
  As  As12_0  1  0.25000000  0.11907200  0.39303450  1
  As  As12_1  1  0.25000000  0.11907200  0.89303450  1
  As  As12_2  1  0.25000000  0.61907200  0.39303450  1
  As  As12_3  1  0.25000000  0.61907200  0.89303450  1
  As  As12_4  1  0.75000000  0.11907200  0.39303450  1
  As  As12_5  1  0.75000000  0.11907200  0.89303450  1
  As  As12_6  1  0.75000000  0.61907200  0.39303450  1
  As  As12_7  1  0.75000000  0.61907200  0.89303450  1
  As  As13_0  1  0.25000000  0.38092800  0.10696550  1
  As  As13_1  1  0.25000000  0.38092800  0.60696550  1
  As  As13_2  1  0.25000000  0.88092800  0.10696550  1
  As  As13_3  1  0.25000000  0.88092800  0.60696550  1
  As  As13_4  1  0.75000000  0.38092800  0.10696550  1
  As  As13_5  1  0.75000000  0.38092800  0.60696550  1
  As  As13_6  1  0.75000000  0.88092800  0.10696550  1
  As  As13_7  1  0.75000000  0.88092800  0.60696550  1
  As  As14_0  1  0.25000000  0.13081900  0.14251400  1
  As  As14_1  1  0.25000000  0.13081900  0.64251400  1
  As  As14_2  1  0.25000000  0.63081900  0.14251400  1
  As  As14_3  1  0.25000000  0.63081900  0.64251400  1
  As  As14_4  1  0.75000000  0.13081900  0.14251400  1
  As  As14_5  1  0.75000000  0.13081900  0.64251400  1
  As  As14_6  1  0.75000000  0.63081900  0.14251400  1
  As  As14_7  1  0.75000000  0.63081900  0.64251400  1
  As  As15_0  1  0.25000000  0.36918100  0.35748600  1
  As  As15_1  1  0.25000000  0.36918100  0.85748600  1
  As  As15_2  1  0.25000000  0.86918100  0.35748600  1
  As  As15_3  1  0.25000000  0.86918100  0.85748600  1
  As  As15_4  1  0.75000000  0.36918100  0.35748600  1
  As  As15_5  1  0.75000000  0.36918100  0.85748600  1
  As  As15_6  1  0.75000000  0.86918100  0.35748600  1
  As  As15_7  1  0.75000000  0.86918100  0.85748600  1
  As  As16_0  1  0.00000000  0.09128250  0.46019850  1
  As  As16_1  1  0.00000000  0.09128250  0.96019850  1
  As  As16_2  1  0.00000000  0.59128250  0.46019850  1
  As  As16_3  1  0.00000000  0.59128250  0.96019850  1
  As  As16_4  1  0.50000000  0.09128250  0.46019850  1
  As  As16_5  1  0.50000000  0.09128250  0.96019850  1
  As  As16_6  1  0.50000000  0.59128250  0.46019850  1
  As  As16_7  1  0.50000000  0.59128250  0.96019850  1
  As  As17_0  1  0.00000000  0.40871750  0.03980150  1
  As  As17_1  1  0.00000000  0.40871750  0.53980150  1
  As  As17_2  1  0.00000000  0.90871750  0.03980150  1
  As  As17_3  1  0.00000000  0.90871750  0.53980150  1
  As  As17_4  1  0.50000000  0.40871750  0.03980150  1
  As  As17_5  1  0.50000000  0.40871750  0.53980150  1
  As  As17_6  1  0.50000000  0.90871750  0.03980150  1
  As  As17_7  1  0.50000000  0.90871750  0.53980150  1
  As  As18_0  1  0.00000000  0.14901650  0.21270800  1
  As  As18_1  1  0.00000000  0.14901650  0.71270800  1
  As  As18_2  1  0.00000000  0.64901650  0.21270800  1
  As  As18_3  1  0.00000000  0.64901650  0.71270800  1
  As  As18_4  1  0.50000000  0.14901650  0.21270800  1
  As  As18_5  1  0.50000000  0.14901650  0.71270800  1
  As  As18_6  1  0.50000000  0.64901650  0.21270800  1
  As  As18_7  1  0.50000000  0.64901650  0.71270800  1
  As  As19_0  1  0.00000000  0.35098350  0.28729200  1
  As  As19_1  1  0.00000000  0.35098350  0.78729200  1
  As  As19_2  1  0.00000000  0.85098350  0.28729200  1
  As  As19_3  1  0.00000000  0.85098350  0.78729200  1
  As  As19_4  1  0.50000000  0.35098350  0.28729200  1
  As  As19_5  1  0.50000000  0.35098350  0.78729200  1
  As  As19_6  1  0.50000000  0.85098350  0.28729200  1
  As  As19_7  1  0.50000000  0.85098350  0.78729200  1
loop_
_geom_bond_atom_site_label_1
_geom_bond_atom_site_label_2
_geom_bond_distance
_geom_bond_site_symmetry_2
Zr0_0 Zr29_1 3.172392 1_555
Zr0_0 Zr29_5 3.172392 1_555
Zr0_0 Zr20_0 3.429672 1_555
Zr0_1 Zr29_0 3.172392 1_556
Zr0_1 Zr29_4 3.172392 1_556
Zr0_1 Zr20_1 3.429672 1_555
Zr0_2 Zr29_3 3.172392 1_555
Zr0_2 Zr29_7 3.172392 1_555
Zr0_2 Zr20_2 3.429672 1_555
Zr0_3 Zr29_2 3.172392 1_556
Zr0_3 Zr29_6 3.172392 1_556
Zr0_3 Zr20_3 3.429672 1_555
Zr0_4 Zr29_1 3.172392 1_655
Zr0_4 Zr29_5 3.172392 1_555
Zr0_4 Zr20_4 3.429672 1_555
Zr0_5 Zr29_0 3.172392 1_656
Zr0_5 Zr29_4 3.172392 1_556
Zr0_5 Zr20_5 3.429672 1_555
Zr0_6 Zr29_3 3.172392 1_655
Zr0_6 Zr29_7 3.172392 1_555
Zr0_6 Zr20_6 3.429672 1_555
Zr0_7 Zr29_2 3.172392 1_656
Zr0_7 Zr29_6 3.172392 1_556
Zr0_7 Zr20_7 3.429672 1_555
Zr1_0 Zr29_2 3.172392 1_555
Zr1_0 Zr29_6 3.172392 1_555
Zr1_0 Zr21_0 3.429672 1_555
Zr1_1 Zr29_3 3.172392 1_555
Zr1_1 Zr29_7 3.172392 1_555
Zr1_1 Zr21_1 3.429672 1_555
Zr1_2 Zr29_0 3.172392 1_565
Zr1_2 Zr29_4 3.172392 1_565
Zr1_2 Zr21_2 3.429672 1_555
Zr1_3 Zr29_1 3.172392 1_565
Zr1_3 Zr29_5 3.172392 1_565
Zr1_3 Zr21_3 3.429672 1_555
Zr1_4 Zr29_2 3.172392 1_655
Zr1_4 Zr29_6 3.172392 1_555
Zr1_4 Zr21_4 3.429672 1_555
Zr1_5 Zr29_3 3.172392 1_655
Zr1_5 Zr29_7 3.172392 1_555
Zr1_5 Zr21_5 3.429672 1_555
Zr1_6 Zr29_0 3.172392 1_665
Zr1_6 Zr29_4 3.172392 1_565
Zr1_6 Zr21_6 3.429672 1_555
Zr1_7 Zr29_1 3.172392 1_665
Zr1_7 Zr29_5 3.172392 1_565
Zr1_7 Zr21_7 3.429672 1_555
Zr2_0 Zr31_2 3.258417 1_545
Zr2_0 Zr31_6 3.258417 1_545
Zr2_0 Zr30_0 3.345867 1_555
Zr2_0 Zr30_4 3.345867 1_555
Zr2_1 Zr31_3 3.258417 1_545
Zr2_1 Zr31_7 3.258417 1_545
Zr2_1 Zr30_1 3.345867 1_555
Zr2_1 Zr30_5 3.345867 1_555
Zr2_2 Zr31_0 3.258417 1_555
Zr2_2 Zr31_4 3.258417 1_555
Zr2_2 Zr30_6 3.345867 1_555
Zr2_2 Zr30_2 3.345867 1_555
Zr2_3 Zr31_1 3.258417 1_555
Zr2_3 Zr31_5 3.258417 1_555
Zr2_3 Zr30_3 3.345867 1_555
Zr2_3 Zr30_7 3.345867 1_555
Zr2_4 Zr31_2 3.258417 1_645
Zr2_4 Zr31_6 3.258417 1_545
Zr2_4 Zr30_0 3.345867 1_655
Zr2_4 Zr30_4 3.345867 1_555
Zr2_5 Zr31_3 3.258417 1_645
Zr2_5 Zr31_7 3.258417 1_545
Zr2_5 Zr30_1 3.345867 1_655
Zr2_5 Zr30_5 3.345867 1_555
Zr2_6 Zr31_0 3.258417 1_655
Zr2_6 Zr31_4 3.258417 1_555
Zr2_6 Zr30_2 3.345867 1_655
Zr2_6 Zr30_6 3.345867 1_555
Zr2_7 Zr31_1 3.258417 1_655
Zr2_7 Zr31_5 3.258417 1_555
Zr2_7 Zr30_3 3.345867 1_655
Zr2_7 Zr30_7 3.345867 1_555
Zr4_0 Zr8_4 3.453920 1_555
Zr4_0 Zr8_0 3.453920 1_555
Zr4_1 Zr8_1 3.453920 1_555
Zr4_1 Zr8_5 3.453920 1_555
Zr4_2 Zr8_6 3.453920 1_555
Zr4_2 Zr8_2 3.453920 1_555
Zr4_3 Zr8_3 3.453920 1_555
Zr4_3 Zr8_7 3.453920 1_555
Zr4_4 Zr8_0 3.453920 1_655
Zr4_4 Zr8_4 3.453920 1_555
Zr4_5 Zr8_1 3.453920 1_655
Zr4_5 Zr8_5 3.453920 1_555
Zr4_6 Zr8_2 3.453920 1_655
Zr4_6 Zr8_6 3.453920 1_555
Zr4_7 Zr8_3 3.453920 1_655
Zr4_7 Zr8_7 3.453920 1_555
Zr5_0 Zr9_4 3.453920 1_555
Zr5_0 Zr9_0 3.453920 1_555
Zr5_1 Zr9_5 3.453920 1_555
Zr5_1 Zr9_1 3.453920 1_555
Zr5_2 Zr9_2 3.453920 1_555
Zr5_2 Zr9_6 3.453920 1_555
Zr5_3 Zr9_3 3.453920 1_555
Zr5_3 Zr9_7 3.453920 1_555
Zr5_4 Zr9_0 3.453920 1_655
Zr5_4 Zr9_4 3.453920 1_555
Zr5_5 Zr9_1 3.453920 1_655
Zr5_5 Zr9_5 3.453920 1_555
Zr5_6 Zr9_2 3.453920 1_655
Zr5_6 Zr9_6 3.453920 1_555
Zr5_7 Zr9_3 3.453920 1_655
Zr5_7 Zr9_7 3.453920 1_555
Zr6_0 Zr9_2 3.232016 1_545
Zr6_0 Zr9_6 3.232016 1_545
Zr6_1 Zr9_7 3.232016 1_545
Zr6_1 Zr9_3 3.232016 1_545
Zr6_2 Zr9_0 3.232016 1_555
Zr6_2 Zr9_4 3.232016 1_555
Zr6_3 Zr9_5 3.232016 1_555
Zr6_3 Zr9_1 3.232016 1_555
Zr6_4 Zr9_2 3.232016 1_645
Zr6_4 Zr9_6 3.232016 1_545
Zr6_5 Zr9_3 3.232016 1_645
Zr6_5 Zr9_7 3.232016 1_545
Zr6_6 Zr9_0 3.232016 1_655
Zr6_6 Zr9_4 3.232016 1_555
Zr6_7 Zr9_1 3.232016 1_655
Zr6_7 Zr9_5 3.232016 1_555
Zr7_0 Zr8_2 3.232016 1_555
Zr7_0 Zr8_6 3.232016 1_555
Zr7_1 Zr8_7 3.232016 1_555
Zr7_1 Zr8_3 3.232016 1_555
Zr7_2 Zr8_0 3.232016 1_565
Zr7_2 Zr8_4 3.232016 1_565
Zr7_3 Zr8_5 3.232016 1_565
Zr7_3 Zr8_1 3.232016 1_565
Zr7_4 Zr8_2 3.232016 1_655
Zr7_4 Zr8_6 3.232016 1_555
Zr7_5 Zr8_3 3.232016 1_655
Zr7_5 Zr8_7 3.232016 1_555
Zr7_6 Zr8_0 3.232016 1_665
Zr7_6 Zr8_4 3.232016 1_565
Zr7_7 Zr8_1 3.232016 1_665
Zr7_7 Zr8_5 3.232016 1_565
Zr10_0 Zr5_4 3.234224 1_455
Zr10_0 Zr5_0 3.234224 1_555
Zr10_0 Zr6_4 3.451898 1_455
Zr10_0 Zr6_0 3.451898 1_555
Zr10_1 Zr5_5 3.234224 1_455
Zr10_1 Zr5_1 3.234224 1_555
Zr10_1 Zr6_5 3.451898 1_455
Zr10_1 Zr6_1 3.451898 1_555
Zr10_2 Zr5_6 3.234224 1_455
Zr10_2 Zr5_2 3.234224 1_555
Zr10_2 Zr6_6 3.451898 1_455
Zr10_2 Zr6_2 3.451898 1_555
Zr10_3 Zr5_7 3.234224 1_455
Zr10_3 Zr5_3 3.234224 1_555
Zr10_3 Zr6_7 3.451898 1_455
Zr10_3 Zr6_3 3.451898 1_555
Zr10_4 Zr5_0 3.234224 1_555
Zr10_4 Zr5_4 3.234224 1_555
Zr10_4 Zr6_0 3.451898 1_555
Zr10_4 Zr6_4 3.451898 1_555
Zr10_5 Zr5_1 3.234224 1_555
Zr10_5 Zr5_5 3.234224 1_555
Zr10_5 Zr6_1 3.451898 1_555
Zr10_5 Zr6_5 3.451898 1_555
Zr10_6 Zr5_2 3.234224 1_555
Zr10_6 Zr5_6 3.234224 1_555
Zr10_6 Zr6_2 3.451898 1_555
Zr10_6 Zr6_6 3.451898 1_555
Zr10_7 Zr5_3 3.234224 1_555
Zr10_7 Zr5_7 3.234224 1_555
Zr10_7 Zr6_3 3.451898 1_555
Zr10_7 Zr6_7 3.451898 1_555
Zr11_0 Zr4_4 3.234224 1_455
Zr11_0 Zr4_0 3.234224 1_555
Zr11_0 Zr7_4 3.451898 1_455
Zr11_0 Zr7_0 3.451898 1_555
Zr11_1 Zr4_5 3.234224 1_455
Zr11_1 Zr4_1 3.234224 1_555
Zr11_1 Zr7_5 3.451898 1_455
Zr11_1 Zr7_1 3.451898 1_555
Zr11_2 Zr4_6 3.234224 1_455
Zr11_2 Zr4_2 3.234224 1_555
Zr11_2 Zr7_6 3.451898 1_455
Zr11_2 Zr7_2 3.451898 1_555
Zr11_3 Zr4_7 3.234224 1_455
Zr11_3 Zr4_3 3.234224 1_555
Zr11_3 Zr7_7 3.451898 1_455
Zr11_3 Zr7_3 3.451898 1_555
Zr11_4 Zr4_0 3.234224 1_555
Zr11_4 Zr4_4 3.234224 1_555
Zr11_4 Zr7_0 3.451898 1_555
Zr11_4 Zr7_4 3.451898 1_555
Zr11_5 Zr4_1 3.234224 1_555
Zr11_5 Zr4_5 3.234224 1_555
Zr11_5 Zr7_1 3.451898 1_555
Zr11_5 Zr7_5 3.451898 1_555
Zr11_6 Zr4_2 3.234224 1_555
Zr11_6 Zr4_6 3.234224 1_555
Zr11_6 Zr7_2 3.451898 1_555
Zr11_6 Zr7_6 3.451898 1_555
Zr11_7 Zr4_3 3.234224 1_555
Zr11_7 Zr4_7 3.234224 1_555
Zr11_7 Zr7_3 3.451898 1_555
Zr11_7 Zr7_7 3.451898 1_555
Zr12_0 Zr28_4 2.995838 1_555
Zr12_0 Zr28_0 2.995838 1_555
Zr12_0 Zr19_0 3.345062 1_555
Zr12_0 Zr19_4 3.345062 1_555
Zr12_1 Zr28_1 2.995838 1_555
Zr12_1 Zr28_5 2.995838 1_555
Zr12_1 Zr19_1 3.345062 1_555
Zr12_1 Zr19_5 3.345062 1_555
Zr12_2 Zr28_2 2.995838 1_555
Zr12_2 Zr28_6 2.995838 1_555
Zr12_2 Zr19_2 3.345062 1_555
Zr12_2 Zr19_6 3.345062 1_555
Zr12_3 Zr28_3 2.995838 1_555
Zr12_3 Zr28_7 2.995838 1_555
Zr12_3 Zr19_3 3.345062 1_555
Zr12_3 Zr19_7 3.345062 1_555
Zr12_4 Zr28_0 2.995838 1_655
Zr12_4 Zr28_4 2.995838 1_555
Zr12_4 Zr19_0 3.345062 1_655
Zr12_4 Zr19_4 3.345062 1_555
Zr12_5 Zr28_1 2.995838 1_655
Zr12_5 Zr28_5 2.995838 1_555
Zr12_5 Zr19_1 3.345062 1_655
Zr12_5 Zr19_5 3.345062 1_555
Zr12_6 Zr28_2 2.995838 1_655
Zr12_6 Zr28_6 2.995838 1_555
Zr12_6 Zr19_2 3.345062 1_655
Zr12_6 Zr19_6 3.345062 1_555
Zr12_7 Zr28_3 2.995838 1_655
Zr12_7 Zr28_7 2.995838 1_555
Zr12_7 Zr19_3 3.345062 1_655
Zr12_7 Zr19_7 3.345062 1_555
Zr13_0 Zr28_0 2.995838 1_555
Zr13_0 Zr28_4 2.995838 1_555
Zr13_0 Zr18_0 3.345062 1_555
Zr13_0 Zr18_4 3.345062 1_555
Zr13_1 Zr28_5 2.995838 1_555
Zr13_1 Zr28_1 2.995838 1_555
Zr13_1 Zr18_1 3.345062 1_555
Zr13_1 Zr18_5 3.345062 1_555
Zr13_2 Zr28_6 2.995838 1_555
Zr13_2 Zr28_2 2.995838 1_555
Zr13_2 Zr18_6 3.345062 1_555
Zr13_2 Zr18_2 3.345062 1_555
Zr13_3 Zr28_3 2.995838 1_555
Zr13_3 Zr28_7 2.995838 1_555
Zr13_3 Zr18_3 3.345062 1_555
Zr13_3 Zr18_7 3.345062 1_555
Zr13_4 Zr28_0 2.995838 1_655
Zr13_4 Zr28_4 2.995838 1_555
Zr13_4 Zr18_0 3.345062 1_655
Zr13_4 Zr18_4 3.345062 1_555
Zr13_5 Zr28_1 2.995838 1_655
Zr13_5 Zr28_5 2.995838 1_555
Zr13_5 Zr18_1 3.345062 1_655
Zr13_5 Zr18_5 3.345062 1_555
Zr13_6 Zr28_2 2.995838 1_655
Zr13_6 Zr28_6 2.995838 1_555
Zr13_6 Zr18_2 3.345062 1_655
Zr13_6 Zr18_6 3.345062 1_555
Zr13_7 Zr28_3 2.995838 1_655
Zr13_7 Zr28_7 2.995838 1_555
Zr13_7 Zr18_3 3.345062 1_655
Zr13_7 Zr18_7 3.345062 1_555
Zr14_0 Zr29_4 3.042706 1_555
Zr14_0 Zr29_0 3.042706 1_555
Zr14_0 Zr17_2 3.325768 1_545
Zr14_0 Zr17_6 3.325768 1_545
Zr14_1 Zr29_5 3.042706 1_555
Zr14_1 Zr29_1 3.042706 1_555
Zr14_1 Zr17_3 3.325768 1_545
Zr14_1 Zr17_7 3.325768 1_545
Zr14_2 Zr29_6 3.042706 1_555
Zr14_2 Zr29_2 3.042706 1_555
Zr14_2 Zr17_0 3.325768 1_555
Zr14_2 Zr17_4 3.325768 1_555
Zr14_3 Zr29_3 3.042706 1_555
Zr14_3 Zr29_7 3.042706 1_555
Zr14_3 Zr17_5 3.325768 1_555
Zr14_3 Zr17_1 3.325768 1_555
Zr14_4 Zr29_0 3.042706 1_655
Zr14_4 Zr29_4 3.042706 1_555
Zr14_4 Zr17_2 3.325768 1_645
Zr14_4 Zr17_6 3.325768 1_545
Zr14_5 Zr29_1 3.042706 1_655
Zr14_5 Zr29_5 3.042706 1_555
Zr14_5 Zr17_3 3.325768 1_645
Zr14_5 Zr17_7 3.325768 1_545
Zr14_6 Zr29_2 3.042706 1_655
Zr14_6 Zr29_6 3.042706 1_555
Zr14_6 Zr17_0 3.325768 1_655
Zr14_6 Zr17_4 3.325768 1_555
Zr14_7 Zr29_3 3.042706 1_655
Zr14_7 Zr29_7 3.042706 1_555
Zr14_7 Zr17_1 3.325768 1_655
Zr14_7 Zr17_5 3.325768 1_555
Zr15_0 Zr29_7 3.042706 1_555
Zr15_0 Zr29_3 3.042706 1_555
Zr15_0 Zr16_2 3.325768 1_555
Zr15_0 Zr16_6 3.325768 1_555
Zr15_1 Zr29_2 3.042706 1_556
Zr15_1 Zr29_6 3.042706 1_556
Zr15_1 Zr16_3 3.325768 1_555
Zr15_1 Zr16_7 3.325768 1_555
Zr15_2 Zr29_1 3.042706 1_565
Zr15_2 Zr29_5 3.042706 1_565
Zr15_2 Zr16_4 3.325768 1_565
Zr15_2 Zr16_0 3.325768 1_565
Zr15_3 Zr29_0 3.042706 1_566
Zr15_3 Zr29_4 3.042706 1_566
Zr15_3 Zr16_1 3.325768 1_565
Zr15_3 Zr16_5 3.325768 1_565
Zr15_4 Zr29_3 3.042706 1_655
Zr15_4 Zr29_7 3.042706 1_555
Zr15_4 Zr16_2 3.325768 1_655
Zr15_4 Zr16_6 3.325768 1_555
Zr15_5 Zr29_2 3.042706 1_656
Zr15_5 Zr29_6 3.042706 1_556
Zr15_5 Zr16_3 3.325768 1_655
Zr15_5 Zr16_7 3.325768 1_555
Zr15_6 Zr29_1 3.042706 1_665
Zr15_6 Zr29_5 3.042706 1_565
Zr15_6 Zr16_0 3.325768 1_665
Zr15_6 Zr16_4 3.325768 1_565
Zr15_7 Zr29_0 3.042706 1_666
Zr15_7 Zr29_4 3.042706 1_566
Zr15_7 Zr16_1 3.325768 1_665
Zr15_7 Zr16_5 3.325768 1_565
Zr16_0 Zr7_6 3.406359 1_445
Zr16_0 Zr7_2 3.406359 1_545
Zr16_1 Zr7_7 3.406359 1_445
Zr16_1 Zr7_3 3.406359 1_545
Zr16_2 Zr7_4 3.406359 1_455
Zr16_2 Zr7_0 3.406359 1_555
Zr16_3 Zr7_5 3.406359 1_455
Zr16_3 Zr7_1 3.406359 1_555
Zr16_4 Zr7_2 3.406359 1_545
Zr16_4 Zr7_6 3.406359 1_545
Zr16_5 Zr7_3 3.406359 1_545
Zr16_5 Zr7_7 3.406359 1_545
Zr16_6 Zr7_0 3.406359 1_555
Zr16_6 Zr7_4 3.406359 1_555
Zr16_7 Zr7_1 3.406359 1_555
Zr16_7 Zr7_5 3.406359 1_555
Zr17_0 Zr6_6 3.406359 1_455
Zr17_0 Zr6_2 3.406359 1_555
Zr17_1 Zr6_7 3.406359 1_455
Zr17_1 Zr6_3 3.406359 1_555
Zr17_2 Zr6_4 3.406359 1_465
Zr17_2 Zr6_0 3.406359 1_565
Zr17_3 Zr6_5 3.406359 1_465
Zr17_3 Zr6_1 3.406359 1_565
Zr17_4 Zr6_2 3.406359 1_555
Zr17_4 Zr6_6 3.406359 1_555
Zr17_5 Zr6_3 3.406359 1_555
Zr17_5 Zr6_7 3.406359 1_555
Zr17_6 Zr6_0 3.406359 1_565
Zr17_6 Zr6_4 3.406359 1_565
Zr17_7 Zr6_1 3.406359 1_565
Zr17_7 Zr6_5 3.406359 1_565
Zr18_0 Zr22_4 3.360517 1_455
Zr18_0 Zr22_0 3.360517 1_555
Zr18_0 Zr5_4 3.431373 1_455
Zr18_0 Zr5_0 3.431373 1_555
Zr18_1 Zr22_5 3.360517 1_455
Zr18_1 Zr22_1 3.360517 1_555
Zr18_1 Zr5_5 3.431373 1_455
Zr18_1 Zr5_1 3.431373 1_555
Zr18_2 Zr22_6 3.360517 1_455
Zr18_2 Zr22_2 3.360517 1_555
Zr18_2 Zr5_6 3.431373 1_455
Zr18_2 Zr5_2 3.431373 1_555
Zr18_3 Zr22_7 3.360517 1_455
Zr18_3 Zr22_3 3.360517 1_555
Zr18_3 Zr5_7 3.431373 1_455
Zr18_3 Zr5_3 3.431373 1_555
Zr18_4 Zr22_0 3.360517 1_555
Zr18_4 Zr22_4 3.360517 1_555
Zr18_4 Zr5_0 3.431373 1_555
Zr18_4 Zr5_4 3.431373 1_555
Zr18_5 Zr22_1 3.360517 1_555
Zr18_5 Zr22_5 3.360517 1_555
Zr18_5 Zr5_1 3.431373 1_555
Zr18_5 Zr5_5 3.431373 1_555
Zr18_6 Zr22_2 3.360517 1_555
Zr18_6 Zr22_6 3.360517 1_555
Zr18_6 Zr5_2 3.431373 1_555
Zr18_6 Zr5_6 3.431373 1_555
Zr18_7 Zr22_3 3.360517 1_555
Zr18_7 Zr22_7 3.360517 1_555
Zr18_7 Zr5_3 3.431373 1_555
Zr18_7 Zr5_7 3.431373 1_555
Zr19_0 Zr23_0 3.360517 1_555
Zr19_0 Zr23_4 3.360517 1_455
Zr19_0 Zr4_4 3.431373 1_455
Zr19_0 Zr4_0 3.431373 1_555
Zr19_1 Zr23_5 3.360517 1_455
Zr19_1 Zr23_1 3.360517 1_555
Zr19_1 Zr4_5 3.431373 1_455
Zr19_1 Zr4_1 3.431373 1_555
Zr19_2 Zr23_6 3.360517 1_455
Zr19_2 Zr23_2 3.360517 1_555
Zr19_2 Zr4_6 3.431373 1_455
Zr19_2 Zr4_2 3.431373 1_555
Zr19_3 Zr23_7 3.360517 1_455
Zr19_3 Zr23_3 3.360517 1_555
Zr19_3 Zr4_7 3.431373 1_455
Zr19_3 Zr4_3 3.431373 1_555
Zr19_4 Zr23_0 3.360517 1_555
Zr19_4 Zr23_4 3.360517 1_555
Zr19_4 Zr4_0 3.431373 1_555
Zr19_4 Zr4_4 3.431373 1_555
Zr19_5 Zr23_1 3.360517 1_555
Zr19_5 Zr23_5 3.360517 1_555
Zr19_5 Zr4_1 3.431373 1_555
Zr19_5 Zr4_5 3.431373 1_555
Zr19_6 Zr23_2 3.360517 1_555
Zr19_6 Zr23_6 3.360517 1_555
Zr19_6 Zr4_2 3.431373 1_555
Zr19_6 Zr4_6 3.431373 1_555
Zr19_7 Zr23_3 3.360517 1_555
Zr19_7 Zr23_7 3.360517 1_555
Zr19_7 Zr4_3 3.431373 1_555
Zr19_7 Zr4_7 3.431373 1_555
Zr20_0 Zr27_0 3.446290 1_555
Zr20_1 Zr27_1 3.446290 1_555
Zr20_2 Zr27_2 3.446290 1_555
Zr20_3 Zr27_3 3.446290 1_555
Zr20_4 Zr27_4 3.446290 1_555
Zr20_5 Zr27_5 3.446290 1_555
Zr20_6 Zr27_6 3.446290 1_555
Zr20_7 Zr27_7 3.446290 1_555
Zr21_0 Zr26_0 3.446290 1_555
Zr21_1 Zr26_1 3.446290 1_555
Zr21_2 Zr26_2 3.446290 1_555
Zr21_3 Zr26_3 3.446290 1_555
Zr21_4 Zr26_4 3.446290 1_555
Zr21_5 Zr26_5 3.446290 1_555
Zr21_6 Zr26_6 3.446290 1_555
Zr21_7 Zr26_7 3.446290 1_555
Zr22_0 Zr31_2 3.204669 1_545
Zr22_0 Zr31_6 3.204669 1_545
Zr22_1 Zr31_7 3.204669 1_545
Zr22_1 Zr31_3 3.204669 1_545
Zr22_2 Zr31_0 3.204669 1_555
Zr22_2 Zr31_4 3.204669 1_555
Zr22_3 Zr31_1 3.204669 1_555
Zr22_3 Zr31_5 3.204669 1_555
Zr22_4 Zr31_2 3.204669 1_645
Zr22_4 Zr31_6 3.204669 1_545
Zr22_5 Zr31_3 3.204669 1_645
Zr22_5 Zr31_7 3.204669 1_545
Zr22_6 Zr31_0 3.204669 1_655
Zr22_6 Zr31_4 3.204669 1_555
Zr22_7 Zr31_1 3.204669 1_655
Zr22_7 Zr31_5 3.204669 1_555
Zr23_0 Zr30_6 3.204669 1_555
Zr23_0 Zr30_2 3.204669 1_555
Zr23_1 Zr30_7 3.204669 1_555
Zr23_1 Zr30_3 3.204669 1_555
Zr23_2 Zr30_0 3.204669 1_565
Zr23_2 Zr30_4 3.204669 1_565
Zr23_3 Zr30_1 3.204669 1_565
Zr23_3 Zr30_5 3.204669 1_565
Zr23_4 Zr30_2 3.204669 1_655
Zr23_4 Zr30_6 3.204669 1_555
Zr23_5 Zr30_3 3.204669 1_655
Zr23_5 Zr30_7 3.204669 1_555
Zr23_6 Zr30_0 3.204669 1_665
Zr23_6 Zr30_4 3.204669 1_565
Zr23_7 Zr30_1 3.204669 1_665
Zr23_7 Zr30_5 3.204669 1_565
Zr24_0 Zr30_0 3.217944 1_555
Zr24_0 Zr30_4 3.217944 1_555
Zr24_0 Zr8_0 3.408780 1_555
Zr24_0 Zr8_4 3.408780 1_555
Zr24_1 Zr30_5 3.217944 1_555
Zr24_1 Zr30_1 3.217944 1_555
Zr24_1 Zr8_1 3.408780 1_555
Zr24_1 Zr8_5 3.408780 1_555
Zr24_2 Zr30_6 3.217944 1_555
Zr24_2 Zr30_2 3.217944 1_555
Zr24_2 Zr8_2 3.408780 1_555
Zr24_2 Zr8_6 3.408780 1_555
Zr24_3 Zr30_7 3.217944 1_555
Zr24_3 Zr30_3 3.217944 1_555
Zr24_3 Zr8_3 3.408780 1_555
Zr24_3 Zr8_7 3.408780 1_555
Zr24_4 Zr30_0 3.217944 1_655
Zr24_4 Zr30_4 3.217944 1_555
Zr24_4 Zr8_0 3.408780 1_655
Zr24_4 Zr8_4 3.408780 1_555
Zr24_5 Zr30_1 3.217944 1_655
Zr24_5 Zr30_5 3.217944 1_555
Zr24_5 Zr8_1 3.408780 1_655
Zr24_5 Zr8_5 3.408780 1_555
Zr24_6 Zr30_2 3.217944 1_655
Zr24_6 Zr30_6 3.217944 1_555
Zr24_6 Zr8_2 3.408780 1_655
Zr24_6 Zr8_6 3.408780 1_555
Zr24_7 Zr30_3 3.217944 1_655
Zr24_7 Zr30_7 3.217944 1_555
Zr24_7 Zr8_3 3.408780 1_655
Zr24_7 Zr8_7 3.408780 1_555
Zr25_0 Zr31_4 3.217944 1_555
Zr25_0 Zr31_0 3.217944 1_555
Zr25_0 Zr9_4 3.408780 1_555
Zr25_0 Zr9_0 3.408780 1_555
Zr25_1 Zr31_1 3.217944 1_555
Zr25_1 Zr31_5 3.217944 1_555
Zr25_1 Zr9_1 3.408780 1_555
Zr25_1 Zr9_5 3.408780 1_555
Zr25_2 Zr31_2 3.217944 1_555
Zr25_2 Zr31_6 3.217944 1_555
Zr25_2 Zr9_2 3.408780 1_555
Zr25_2 Zr9_6 3.408780 1_555
Zr25_3 Zr31_7 3.217944 1_555
Zr25_3 Zr31_3 3.217944 1_555
Zr25_3 Zr9_7 3.408780 1_555
Zr25_3 Zr9_3 3.408780 1_555
Zr25_4 Zr31_0 3.217944 1_655
Zr25_4 Zr31_4 3.217944 1_555
Zr25_4 Zr9_0 3.408780 1_655
Zr25_4 Zr9_4 3.408780 1_555
Zr25_5 Zr31_1 3.217944 1_655
Zr25_5 Zr31_5 3.217944 1_555
Zr25_5 Zr9_1 3.408780 1_655
Zr25_5 Zr9_5 3.408780 1_555
Zr25_6 Zr31_2 3.217944 1_655
Zr25_6 Zr31_6 3.217944 1_555
Zr25_6 Zr9_2 3.408780 1_655
Zr25_6 Zr9_6 3.408780 1_555
Zr25_7 Zr31_3 3.217944 1_655
Zr25_7 Zr31_7 3.217944 1_555
Zr25_7 Zr9_3 3.408780 1_655
Zr25_7 Zr9_7 3.408780 1_555
Zr28_0 Zr3_4 3.509464 1_455
Zr28_0 Zr3_0 3.509464 1_555
Zr28_0 Zr2_4 3.509464 1_455
Zr28_0 Zr2_0 3.509464 1_555
Zr28_1 Zr3_5 3.509464 1_455
Zr28_1 Zr3_1 3.509464 1_555
Zr28_1 Zr2_5 3.509464 1_455
Zr28_1 Zr2_1 3.509464 1_555
Zr28_2 Zr3_2 3.509464 1_555
Zr28_2 Zr3_6 3.509464 1_455
Zr28_2 Zr2_6 3.509464 1_455
Zr28_2 Zr2_2 3.509464 1_555
Zr28_3 Zr3_7 3.509464 1_455
Zr28_3 Zr3_3 3.509464 1_555
Zr28_3 Zr2_7 3.509464 1_455
Zr28_3 Zr2_3 3.509464 1_555
Zr28_4 Zr3_0 3.509464 1_555
Zr28_4 Zr3_4 3.509464 1_555
Zr28_4 Zr2_0 3.509464 1_555
Zr28_4 Zr2_4 3.509464 1_555
Zr28_5 Zr3_1 3.509464 1_555
Zr28_5 Zr3_5 3.509464 1_555
Zr28_5 Zr2_1 3.509464 1_555
Zr28_5 Zr2_5 3.509464 1_555
Zr28_6 Zr3_2 3.509464 1_555
Zr28_6 Zr3_6 3.509464 1_555
Zr28_6 Zr2_2 3.509464 1_555
Zr28_6 Zr2_6 3.509464 1_555
Zr28_7 Zr3_3 3.509464 1_555
Zr28_7 Zr3_7 3.509464 1_555
Zr28_7 Zr2_3 3.509464 1_555
Zr28_7 Zr2_7 3.509464 1_555
Zr30_0 Zr3_6 3.258417 1_445
Zr30_0 Zr3_2 3.258417 1_545
Zr30_0 Zr31_2 3.300914 1_545
Zr30_0 Zr30_4 3.749256 1_555
Zr30_0 Zr30_4 3.749256 1_455
Zr30_1 Zr3_7 3.258417 1_445
Zr30_1 Zr3_3 3.258417 1_545
Zr30_1 Zr31_3 3.300914 1_545
Zr30_1 Zr30_5 3.749256 1_555
Zr30_1 Zr30_5 3.749256 1_455
Zr30_2 Zr3_4 3.258417 1_455
Zr30_2 Zr3_0 3.258417 1_555
Zr30_2 Zr31_0 3.300914 1_555
Zr30_2 Zr30_6 3.749256 1_555
Zr30_2 Zr30_6 3.749256 1_455
Zr30_3 Zr3_5 3.258417 1_455
Zr30_3 Zr3_1 3.258417 1_555
Zr30_3 Zr31_1 3.300914 1_555
Zr30_3 Zr30_7 3.749256 1_555
Zr30_3 Zr30_7 3.749256 1_455
Zr30_4 Zr3_2 3.258417 1_545
Zr30_4 Zr3_6 3.258417 1_545
Zr30_4 Zr31_6 3.300914 1_545
Zr30_5 Zr3_3 3.258417 1_545
Zr30_5 Zr3_7 3.258417 1_545
Zr30_5 Zr31_7 3.300914 1_545
Zr30_6 Zr3_0 3.258417 1_555
Zr30_6 Zr3_4 3.258417 1_555
Zr30_6 Zr31_4 3.300914 1_555
Zr30_7 Zr3_1 3.258417 1_555
Zr30_7 Zr3_5 3.258417 1_555
Zr30_7 Zr31_5 3.300914 1_555
Zr31_0 Zr3_4 3.345867 1_455
Zr31_0 Zr3_0 3.345867 1_555
Zr31_0 Zr31_4 3.749256 1_555
Zr31_0 Zr31_4 3.749256 1_455
Zr31_1 Zr3_5 3.345867 1_455
Zr31_1 Zr3_1 3.345867 1_555
Zr31_1 Zr31_5 3.749256 1_455
Zr31_1 Zr31_5 3.749256 1_555
Zr31_2 Zr3_6 3.345867 1_455
Zr31_2 Zr3_2 3.345867 1_555
Zr31_2 Zr31_6 3.749256 1_455
Zr31_2 Zr31_6 3.749256 1_555
Zr31_3 Zr3_7 3.345867 1_455
Zr31_3 Zr3_3 3.345867 1_555
Zr31_3 Zr31_7 3.749256 1_555
Zr31_3 Zr31_7 3.749256 1_455
Zr31_4 Zr3_0 3.345867 1_555
Zr31_4 Zr3_4 3.345867 1_555
Zr31_5 Zr3_1 3.345867 1_555
Zr31_5 Zr3_5 3.345867 1_555
Zr31_6 Zr3_2 3.345867 1_555
Zr31_6 Zr3_6 3.345867 1_555
Zr31_7 Zr3_3 3.345867 1_555
Zr31_7 Zr3_7 3.345867 1_555
As0_0 Zr24_4 2.741749 1_455
As0_0 Zr24_0 2.741749 1_555
As0_0 Zr7_6 2.825469 1_445
As0_0 Zr7_2 2.825469 1_545
As0_0 Zr23_6 2.844403 1_445
As0_0 Zr23_2 2.844403 1_545
As0_0 Zr8_0 2.848524 1_555
As0_0 Zr30_0 3.032755 1_555
As0_1 Zr24_5 2.741749 1_455
As0_1 Zr24_1 2.741749 1_555
As0_1 Zr7_7 2.825469 1_445
As0_1 Zr7_3 2.825469 1_545
As0_1 Zr23_7 2.844403 1_445
As0_1 Zr23_3 2.844403 1_545
As0_1 Zr8_1 2.848524 1_555
As0_1 Zr30_1 3.032755 1_555
As0_2 Zr24_6 2.741749 1_455
As0_2 Zr24_2 2.741749 1_555
As0_2 Zr7_4 2.825469 1_455
As0_2 Zr7_0 2.825469 1_555
As0_2 Zr23_4 2.844403 1_455
As0_2 Zr23_0 2.844403 1_555
As0_2 Zr8_2 2.848524 1_555
As0_2 Zr30_2 3.032755 1_555
As0_3 Zr24_7 2.741749 1_455
As0_3 Zr24_3 2.741749 1_555
As0_3 Zr7_5 2.825469 1_455
As0_3 Zr7_1 2.825469 1_555
As0_3 Zr23_5 2.844403 1_455
As0_3 Zr23_1 2.844403 1_555
As0_3 Zr8_3 2.848524 1_555
As0_3 Zr30_3 3.032755 1_555
As0_4 Zr24_0 2.741749 1_555
As0_4 Zr24_4 2.741749 1_555
As0_4 Zr7_2 2.825469 1_545
As0_4 Zr7_6 2.825469 1_545
As0_4 Zr23_2 2.844403 1_545
As0_4 Zr23_6 2.844403 1_545
As0_4 Zr8_4 2.848524 1_555
As0_4 Zr30_4 3.032755 1_555
As0_5 Zr24_1 2.741749 1_555
As0_5 Zr24_5 2.741749 1_555
As0_5 Zr7_3 2.825469 1_545
As0_5 Zr7_7 2.825469 1_545
As0_5 Zr23_3 2.844403 1_545
As0_5 Zr23_7 2.844403 1_545
As0_5 Zr8_5 2.848524 1_555
As0_5 Zr30_5 3.032755 1_555
As0_6 Zr24_2 2.741749 1_555
As0_6 Zr24_6 2.741749 1_555
As0_6 Zr7_0 2.825469 1_555
As0_6 Zr7_4 2.825469 1_555
As0_6 Zr23_0 2.844403 1_555
As0_6 Zr23_4 2.844403 1_555
As0_6 Zr8_6 2.848524 1_555
As0_6 Zr30_6 3.032755 1_555
As0_7 Zr24_3 2.741749 1_555
As0_7 Zr24_7 2.741749 1_555
As0_7 Zr7_1 2.825469 1_555
As0_7 Zr7_5 2.825469 1_555
As0_7 Zr23_1 2.844403 1_555
As0_7 Zr23_5 2.844403 1_555
As0_7 Zr8_7 2.848524 1_555
As0_7 Zr30_7 3.032755 1_555
As1_0 Zr25_4 2.741749 1_455
As1_0 Zr25_0 2.741749 1_555
As1_0 Zr6_6 2.825469 1_455
As1_0 Zr6_2 2.825469 1_555
As1_0 Zr22_6 2.844403 1_455
As1_0 Zr22_2 2.844403 1_555
As1_0 Zr9_0 2.848524 1_555
As1_0 Zr31_0 3.032755 1_555
As1_1 Zr25_5 2.741749 1_455
As1_1 Zr25_1 2.741749 1_555
As1_1 Zr6_7 2.825469 1_455
As1_1 Zr6_3 2.825469 1_555
As1_1 Zr22_7 2.844403 1_455
As1_1 Zr22_3 2.844403 1_555
As1_1 Zr9_1 2.848524 1_555
As1_1 Zr31_1 3.032755 1_555
As1_2 Zr25_6 2.741749 1_455
As1_2 Zr25_2 2.741749 1_555
As1_2 Zr6_4 2.825469 1_465
As1_2 Zr6_0 2.825469 1_565
As1_2 Zr22_4 2.844403 1_465
As1_2 Zr22_0 2.844403 1_565
As1_2 Zr9_2 2.848524 1_555
As1_2 Zr31_2 3.032755 1_555
As1_3 Zr25_7 2.741749 1_455
As1_3 Zr25_3 2.741749 1_555
As1_3 Zr6_5 2.825469 1_465
As1_3 Zr6_1 2.825469 1_565
As1_3 Zr22_5 2.844403 1_465
As1_3 Zr22_1 2.844403 1_565
As1_3 Zr9_3 2.848524 1_555
As1_3 Zr31_3 3.032755 1_555
As1_4 Zr25_0 2.741749 1_555
As1_4 Zr25_4 2.741749 1_555
As1_4 Zr6_2 2.825469 1_555
As1_4 Zr6_6 2.825469 1_555
As1_4 Zr22_2 2.844403 1_555
As1_4 Zr22_6 2.844403 1_555
As1_4 Zr9_4 2.848524 1_555
As1_4 Zr31_4 3.032755 1_555
As1_5 Zr25_1 2.741749 1_555
As1_5 Zr25_5 2.741749 1_555
As1_5 Zr6_3 2.825469 1_555
As1_5 Zr6_7 2.825469 1_555
As1_5 Zr22_3 2.844403 1_555
As1_5 Zr22_7 2.844403 1_555
As1_5 Zr9_5 2.848524 1_555
As1_5 Zr31_5 3.032755 1_555
As1_6 Zr25_2 2.741749 1_555
As1_6 Zr25_6 2.741749 1_555
As1_6 Zr6_0 2.825469 1_565
As1_6 Zr6_4 2.825469 1_565
As1_6 Zr22_0 2.844403 1_565
As1_6 Zr22_4 2.844403 1_565
As1_6 Zr9_6 2.848524 1_555
As1_6 Zr31_6 3.032755 1_555
As1_7 Zr25_3 2.741749 1_555
As1_7 Zr25_7 2.741749 1_555
As1_7 Zr6_1 2.825469 1_565
As1_7 Zr6_5 2.825469 1_565
As1_7 Zr22_1 2.844403 1_565
As1_7 Zr22_5 2.844403 1_565
As1_7 Zr9_7 2.848524 1_555
As1_7 Zr31_7 3.032755 1_555
As2_0 Zr26_4 2.774546 1_455
As2_0 Zr26_0 2.774546 1_555
As2_0 Zr10_0 2.792241 1_555
As2_0 Zr5_4 2.820031 1_455
As2_0 Zr5_0 2.820031 1_555
As2_0 Zr21_4 2.831207 1_455
As2_0 Zr21_0 2.831207 1_555
As2_1 Zr26_5 2.774546 1_455
As2_1 Zr26_1 2.774546 1_555
As2_1 Zr10_1 2.792241 1_555
As2_1 Zr5_5 2.820031 1_455
As2_1 Zr5_1 2.820031 1_555
As2_1 Zr21_5 2.831207 1_455
As2_1 Zr21_1 2.831207 1_555
As2_2 Zr26_6 2.774546 1_455
As2_2 Zr26_2 2.774546 1_555
As2_2 Zr10_2 2.792241 1_555
As2_2 Zr5_6 2.820031 1_455
As2_2 Zr5_2 2.820031 1_555
As2_2 Zr21_6 2.831207 1_455
As2_2 Zr21_2 2.831207 1_555
As2_3 Zr26_7 2.774546 1_455
As2_3 Zr26_3 2.774546 1_555
As2_3 Zr10_3 2.792241 1_555
As2_3 Zr5_7 2.820031 1_455
As2_3 Zr5_3 2.820031 1_555
As2_3 Zr21_7 2.831207 1_455
As2_3 Zr21_3 2.831207 1_555
As2_4 Zr26_0 2.774546 1_555
As2_4 Zr26_4 2.774546 1_555
As2_4 Zr10_4 2.792241 1_555
As2_4 Zr5_0 2.820031 1_555
As2_4 Zr5_4 2.820031 1_555
As2_4 Zr21_0 2.831207 1_555
As2_4 Zr21_4 2.831207 1_555
As2_5 Zr26_1 2.774546 1_555
As2_5 Zr26_5 2.774546 1_555
As2_5 Zr10_5 2.792241 1_555
As2_5 Zr5_1 2.820031 1_555
As2_5 Zr5_5 2.820031 1_555
As2_5 Zr21_1 2.831207 1_555
As2_5 Zr21_5 2.831207 1_555
As2_6 Zr26_2 2.774546 1_555
As2_6 Zr26_6 2.774546 1_555
As2_6 Zr10_6 2.792241 1_555
As2_6 Zr5_2 2.820031 1_555
As2_6 Zr5_6 2.820031 1_555
As2_6 Zr21_2 2.831207 1_555
As2_6 Zr21_6 2.831207 1_555
As2_7 Zr26_3 2.774546 1_555
As2_7 Zr26_7 2.774546 1_555
As2_7 Zr10_7 2.792241 1_555
As2_7 Zr5_3 2.820031 1_555
As2_7 Zr5_7 2.820031 1_555
As2_7 Zr21_3 2.831207 1_555
As2_7 Zr21_7 2.831207 1_555
As3_0 Zr27_4 2.774546 1_455
As3_0 Zr27_0 2.774546 1_555
As3_0 Zr11_0 2.792241 1_555
As3_0 Zr4_4 2.820031 1_455
As3_0 Zr4_0 2.820031 1_555
As3_0 Zr20_0 2.831207 1_555
As3_0 Zr20_4 2.831207 1_455
As3_1 Zr27_5 2.774546 1_455
As3_1 Zr27_1 2.774546 1_555
As3_1 Zr11_1 2.792241 1_555
As3_1 Zr4_5 2.820031 1_455
As3_1 Zr4_1 2.820031 1_555
As3_1 Zr20_5 2.831207 1_455
As3_1 Zr20_1 2.831207 1_555
As3_2 Zr27_6 2.774546 1_455
As3_2 Zr27_2 2.774546 1_555
As3_2 Zr11_2 2.792241 1_555
As3_2 Zr4_6 2.820031 1_455
As3_2 Zr4_2 2.820031 1_555
As3_2 Zr20_6 2.831207 1_455
As3_2 Zr20_2 2.831207 1_555
As3_3 Zr27_7 2.774546 1_455
As3_3 Zr27_3 2.774546 1_555
As3_3 Zr11_3 2.792241 1_555
As3_3 Zr4_7 2.820031 1_455
As3_3 Zr4_3 2.820031 1_555
As3_3 Zr20_7 2.831207 1_455
As3_3 Zr20_3 2.831207 1_555
As3_4 Zr27_0 2.774546 1_555
As3_4 Zr27_4 2.774546 1_555
As3_4 Zr11_4 2.792241 1_555
As3_4 Zr4_0 2.820031 1_555
As3_4 Zr4_4 2.820031 1_555
As3_4 Zr20_0 2.831207 1_555
As3_4 Zr20_4 2.831207 1_555
As3_5 Zr27_1 2.774546 1_555
As3_5 Zr27_5 2.774546 1_555
As3_5 Zr11_5 2.792241 1_555
As3_5 Zr4_1 2.820031 1_555
As3_5 Zr4_5 2.820031 1_555
As3_5 Zr20_1 2.831207 1_555
As3_5 Zr20_5 2.831207 1_555
As3_6 Zr27_2 2.774546 1_555
As3_6 Zr27_6 2.774546 1_555
As3_6 Zr11_6 2.792241 1_555
As3_6 Zr4_2 2.820031 1_555
As3_6 Zr4_6 2.820031 1_555
As3_6 Zr20_2 2.831207 1_555
As3_6 Zr20_6 2.831207 1_555
As3_7 Zr27_3 2.774546 1_555
As3_7 Zr27_7 2.774546 1_555
As3_7 Zr11_7 2.792241 1_555
As3_7 Zr4_3 2.820031 1_555
As3_7 Zr4_7 2.820031 1_555
As3_7 Zr20_3 2.831207 1_555
As3_7 Zr20_7 2.831207 1_555
As4_0 Zr24_0 2.696999 1_555
As4_0 Zr19_0 2.717954 1_555
As4_0 Zr19_4 2.717954 1_555
As4_0 Zr8_0 2.739538 1_555
As4_0 Zr8_4 2.739538 1_555
As4_0 Zr12_0 2.772073 1_555
As4_0 Zr4_0 2.876450 1_555
As4_1 Zr24_1 2.696999 1_555
As4_1 Zr19_1 2.717954 1_555
As4_1 Zr19_5 2.717954 1_555
As4_1 Zr8_1 2.739538 1_555
As4_1 Zr8_5 2.739538 1_555
As4_1 Zr12_1 2.772073 1_555
As4_1 Zr4_1 2.876450 1_555
As4_2 Zr24_2 2.696999 1_555
As4_2 Zr19_6 2.717954 1_555
As4_2 Zr19_2 2.717954 1_555
As4_2 Zr8_6 2.739538 1_555
As4_2 Zr8_2 2.739538 1_555
As4_2 Zr12_2 2.772073 1_555
As4_2 Zr4_2 2.876450 1_555
As4_3 Zr24_3 2.696999 1_555
As4_3 Zr19_3 2.717954 1_555
As4_3 Zr19_7 2.717954 1_555
As4_3 Zr8_7 2.739538 1_555
As4_3 Zr8_3 2.739538 1_555
As4_3 Zr12_3 2.772073 1_555
As4_3 Zr4_3 2.876450 1_555
As4_4 Zr24_4 2.696999 1_555
As4_4 Zr19_0 2.717954 1_655
As4_4 Zr19_4 2.717954 1_555
As4_4 Zr8_0 2.739538 1_655
As4_4 Zr8_4 2.739538 1_555
As4_4 Zr12_4 2.772073 1_555
As4_4 Zr4_4 2.876450 1_555
As4_5 Zr24_5 2.696999 1_555
As4_5 Zr19_1 2.717954 1_655
As4_5 Zr19_5 2.717954 1_555
As4_5 Zr8_1 2.739538 1_655
As4_5 Zr8_5 2.739538 1_555
As4_5 Zr12_5 2.772073 1_555
As4_5 Zr4_5 2.876450 1_555
As4_6 Zr24_6 2.696999 1_555
As4_6 Zr19_2 2.717954 1_655
As4_6 Zr19_6 2.717954 1_555
As4_6 Zr8_2 2.739538 1_655
As4_6 Zr8_6 2.739538 1_555
As4_6 Zr12_6 2.772073 1_555
As4_6 Zr4_6 2.876450 1_555
As4_7 Zr24_7 2.696999 1_555
As4_7 Zr19_3 2.717954 1_655
As4_7 Zr19_7 2.717954 1_555
As4_7 Zr8_3 2.739538 1_655
As4_7 Zr8_7 2.739538 1_555
As4_7 Zr12_7 2.772073 1_555
As4_7 Zr4_7 2.876450 1_555
As5_0 Zr25_0 2.696999 1_555
As5_0 Zr18_0 2.717954 1_555
As5_0 Zr18_4 2.717954 1_555
As5_0 Zr9_0 2.739538 1_555
As5_0 Zr9_4 2.739538 1_555
As5_0 Zr13_0 2.772073 1_555
As5_0 Zr5_0 2.876450 1_555
As5_1 Zr25_1 2.696999 1_555
As5_1 Zr18_1 2.717954 1_555
As5_1 Zr18_5 2.717954 1_555
As5_1 Zr9_5 2.739538 1_555
As5_1 Zr9_1 2.739538 1_555
As5_1 Zr13_1 2.772073 1_555
As5_1 Zr5_1 2.876450 1_555
As5_2 Zr25_2 2.696999 1_555
As5_2 Zr18_2 2.717954 1_555
As5_2 Zr18_6 2.717954 1_555
As5_2 Zr9_2 2.739538 1_555
As5_2 Zr9_6 2.739538 1_555
As5_2 Zr13_2 2.772073 1_555
As5_2 Zr5_2 2.876450 1_555
As5_3 Zr25_3 2.696999 1_555
As5_3 Zr18_7 2.717954 1_555
As5_3 Zr18_3 2.717954 1_555
As5_3 Zr9_3 2.739538 1_555
As5_3 Zr9_7 2.739538 1_555
As5_3 Zr13_3 2.772073 1_555
As5_3 Zr5_3 2.876450 1_555
As5_4 Zr25_4 2.696999 1_555
As5_4 Zr18_0 2.717954 1_655
As5_4 Zr18_4 2.717954 1_555
As5_4 Zr9_0 2.739538 1_655
As5_4 Zr9_4 2.739538 1_555
As5_4 Zr13_4 2.772073 1_555
As5_4 Zr5_4 2.876450 1_555
As5_5 Zr25_5 2.696999 1_555
As5_5 Zr18_1 2.717954 1_655
As5_5 Zr18_5 2.717954 1_555
As5_5 Zr9_1 2.739538 1_655
As5_5 Zr9_5 2.739538 1_555
As5_5 Zr13_5 2.772073 1_555
As5_5 Zr5_5 2.876450 1_555
As5_6 Zr25_6 2.696999 1_555
As5_6 Zr18_2 2.717954 1_655
As5_6 Zr18_6 2.717954 1_555
As5_6 Zr9_2 2.739538 1_655
As5_6 Zr9_6 2.739538 1_555
As5_6 Zr13_6 2.772073 1_555
As5_6 Zr5_6 2.876450 1_555
As5_7 Zr25_7 2.696999 1_555
As5_7 Zr18_3 2.717954 1_655
As5_7 Zr18_7 2.717954 1_555
As5_7 Zr9_3 2.739538 1_655
As5_7 Zr9_7 2.739538 1_555
As5_7 Zr13_7 2.772073 1_555
As5_7 Zr5_7 2.876450 1_555
As6_0 Zr26_0 2.701113 1_555
As6_0 Zr14_0 2.720181 1_555
As6_0 Zr17_2 2.722861 1_545
As6_0 Zr17_6 2.722861 1_545
As6_0 Zr10_0 2.725455 1_555
As6_0 Zr10_4 2.725455 1_555
As6_0 Zr6_0 2.899227 1_555
As6_1 Zr26_1 2.701113 1_555
As6_1 Zr14_1 2.720181 1_555
As6_1 Zr17_3 2.722861 1_545
As6_1 Zr17_7 2.722861 1_545
As6_1 Zr10_5 2.725455 1_555
As6_1 Zr10_1 2.725455 1_555
As6_1 Zr6_1 2.899227 1_555
As6_2 Zr26_2 2.701113 1_555
As6_2 Zr14_2 2.720181 1_555
As6_2 Zr17_4 2.722861 1_555
As6_2 Zr17_0 2.722861 1_555
As6_2 Zr10_2 2.725455 1_555
As6_2 Zr10_6 2.725455 1_555
As6_2 Zr6_2 2.899227 1_555
As6_3 Zr26_3 2.701113 1_555
As6_3 Zr14_3 2.720181 1_555
As6_3 Zr17_1 2.722861 1_555
As6_3 Zr17_5 2.722861 1_555
As6_3 Zr10_3 2.725455 1_555
As6_3 Zr10_7 2.725455 1_555
As6_3 Zr6_3 2.899227 1_555
As6_4 Zr26_4 2.701113 1_555
As6_4 Zr14_4 2.720181 1_555
As6_4 Zr17_2 2.722861 1_645
As6_4 Zr17_6 2.722861 1_545
As6_4 Zr10_0 2.725455 1_655
As6_4 Zr10_4 2.725455 1_555
As6_4 Zr6_4 2.899227 1_555
As6_5 Zr26_5 2.701113 1_555
As6_5 Zr14_5 2.720181 1_555
As6_5 Zr17_3 2.722861 1_645
As6_5 Zr17_7 2.722861 1_545
As6_5 Zr10_1 2.725455 1_655
As6_5 Zr10_5 2.725455 1_555
As6_5 Zr6_5 2.899227 1_555
As6_6 Zr26_6 2.701113 1_555
As6_6 Zr14_6 2.720181 1_555
As6_6 Zr17_0 2.722861 1_655
As6_6 Zr17_4 2.722861 1_555
As6_6 Zr10_2 2.725455 1_655
As6_6 Zr10_6 2.725455 1_555
As6_6 Zr6_6 2.899227 1_555
As6_7 Zr26_7 2.701113 1_555
As6_7 Zr14_7 2.720181 1_555
As6_7 Zr17_1 2.722861 1_655
As6_7 Zr17_5 2.722861 1_555
As6_7 Zr10_3 2.725455 1_655
As6_7 Zr10_7 2.725455 1_555
As6_7 Zr6_7 2.899227 1_555
As7_0 Zr27_0 2.701113 1_555
As7_0 Zr15_0 2.720181 1_555
As7_0 Zr16_6 2.722861 1_555
As7_0 Zr16_2 2.722861 1_555
As7_0 Zr11_0 2.725455 1_555
As7_0 Zr11_4 2.725455 1_555
As7_0 Zr7_0 2.899227 1_555
As7_1 Zr27_1 2.701113 1_555
As7_1 Zr15_1 2.720181 1_555
As7_1 Zr16_3 2.722861 1_555
As7_1 Zr16_7 2.722861 1_555
As7_1 Zr11_1 2.725455 1_555
As7_1 Zr11_5 2.725455 1_555
As7_1 Zr7_1 2.899227 1_555
As7_2 Zr27_2 2.701113 1_555
As7_2 Zr15_2 2.720181 1_555
As7_2 Zr16_0 2.722861 1_565
As7_2 Zr16_4 2.722861 1_565
As7_2 Zr11_2 2.725455 1_555
As7_2 Zr11_6 2.725455 1_555
As7_2 Zr7_2 2.899227 1_555
As7_3 Zr27_3 2.701113 1_555
As7_3 Zr15_3 2.720181 1_555
As7_3 Zr16_1 2.722861 1_565
As7_3 Zr16_5 2.722861 1_565
As7_3 Zr11_3 2.725455 1_555
As7_3 Zr11_7 2.725455 1_555
As7_3 Zr7_3 2.899227 1_555
As7_4 Zr27_4 2.701113 1_555
As7_4 Zr15_4 2.720181 1_555
As7_4 Zr16_2 2.722861 1_655
As7_4 Zr16_6 2.722861 1_555
As7_4 Zr11_0 2.725455 1_655
As7_4 Zr11_4 2.725455 1_555
As7_4 Zr7_4 2.899227 1_555
As7_5 Zr27_5 2.701113 1_555
As7_5 Zr15_5 2.720181 1_555
As7_5 Zr16_3 2.722861 1_655
As7_5 Zr16_7 2.722861 1_555
As7_5 Zr11_1 2.725455 1_655
As7_5 Zr11_5 2.725455 1_555
As7_5 Zr7_5 2.899227 1_555
As7_6 Zr27_6 2.701113 1_555
As7_6 Zr15_6 2.720181 1_555
As7_6 Zr16_0 2.722861 1_665
As7_6 Zr16_4 2.722861 1_565
As7_6 Zr11_2 2.725455 1_655
As7_6 Zr11_6 2.725455 1_555
As7_6 Zr7_6 2.899227 1_555
As7_7 Zr27_7 2.701113 1_555
As7_7 Zr15_7 2.720181 1_555
As7_7 Zr16_1 2.722861 1_665
As7_7 Zr16_5 2.722861 1_565
As7_7 Zr11_3 2.725455 1_655
As7_7 Zr11_7 2.725455 1_555
As7_7 Zr7_7 2.899227 1_555
As8_0 Zr24_4 2.772150 1_455
As8_0 Zr24_0 2.772150 1_555
As8_0 Zr28_0 2.778949 1_555
As8_0 Zr2_4 2.794119 1_455
As8_0 Zr2_0 2.794119 1_555
As8_0 Zr12_4 2.909925 1_455
As8_0 Zr12_0 2.909925 1_555
As8_0 Zr30_0 2.925855 1_555
As8_1 Zr24_5 2.772150 1_455
As8_1 Zr24_1 2.772150 1_555
As8_1 Zr28_1 2.778949 1_555
As8_1 Zr2_5 2.794119 1_455
As8_1 Zr2_1 2.794119 1_555
As8_1 Zr12_5 2.909925 1_455
As8_1 Zr12_1 2.909925 1_555
As8_1 Zr30_1 2.925855 1_555
As8_2 Zr24_6 2.772150 1_455
As8_2 Zr24_2 2.772150 1_555
As8_2 Zr28_2 2.778949 1_555
As8_2 Zr2_6 2.794119 1_455
As8_2 Zr2_2 2.794119 1_555
As8_2 Zr12_6 2.909925 1_455
As8_2 Zr12_2 2.909925 1_555
As8_2 Zr30_2 2.925855 1_555
As8_3 Zr24_7 2.772150 1_455
As8_3 Zr24_3 2.772150 1_555
As8_3 Zr28_3 2.778949 1_555
As8_3 Zr2_7 2.794119 1_455
As8_3 Zr2_3 2.794119 1_555
As8_3 Zr12_7 2.909925 1_455
As8_3 Zr12_3 2.909925 1_555
As8_3 Zr30_3 2.925855 1_555
As8_4 Zr24_0 2.772150 1_555
As8_4 Zr24_4 2.772150 1_555
As8_4 Zr28_4 2.778949 1_555
As8_4 Zr2_0 2.794119 1_555
As8_4 Zr2_4 2.794119 1_555
As8_4 Zr12_0 2.909925 1_555
As8_4 Zr12_4 2.909925 1_555
As8_4 Zr30_4 2.925855 1_555
As8_5 Zr24_1 2.772150 1_555
As8_5 Zr24_5 2.772150 1_555
As8_5 Zr28_5 2.778949 1_555
As8_5 Zr2_1 2.794119 1_555
As8_5 Zr2_5 2.794119 1_555
As8_5 Zr12_1 2.909925 1_555
As8_5 Zr12_5 2.909925 1_555
As8_5 Zr30_5 2.925855 1_555
As8_6 Zr24_2 2.772150 1_555
As8_6 Zr24_6 2.772150 1_555
As8_6 Zr28_6 2.778949 1_555
As8_6 Zr2_2 2.794119 1_555
As8_6 Zr2_6 2.794119 1_555
As8_6 Zr12_2 2.909925 1_555
As8_6 Zr12_6 2.909925 1_555
As8_6 Zr30_6 2.925855 1_555
As8_7 Zr24_3 2.772150 1_555
As8_7 Zr24_7 2.772150 1_555
As8_7 Zr28_7 2.778949 1_555
As8_7 Zr2_3 2.794119 1_555
As8_7 Zr2_7 2.794119 1_555
As8_7 Zr12_3 2.909925 1_555
As8_7 Zr12_7 2.909925 1_555
As8_7 Zr30_7 2.925855 1_555
As9_0 Zr25_4 2.772150 1_455
As9_0 Zr25_0 2.772150 1_555
As9_0 Zr28_0 2.778949 1_555
As9_0 Zr3_4 2.794119 1_455
As9_0 Zr3_0 2.794119 1_555
As9_0 Zr13_4 2.909925 1_455
As9_0 Zr13_0 2.909925 1_555
As9_0 Zr31_0 2.925855 1_555
As9_1 Zr25_5 2.772150 1_455
As9_1 Zr25_1 2.772150 1_555
As9_1 Zr28_1 2.778949 1_555
As9_1 Zr3_5 2.794119 1_455
As9_1 Zr3_1 2.794119 1_555
As9_1 Zr13_5 2.909925 1_455
As9_1 Zr13_1 2.909925 1_555
As9_1 Zr31_1 2.925855 1_555
As9_2 Zr25_6 2.772150 1_455
As9_2 Zr25_2 2.772150 1_555
As9_2 Zr28_2 2.778949 1_555
As9_2 Zr3_6 2.794119 1_455
As9_2 Zr3_2 2.794119 1_555
As9_2 Zr13_6 2.909925 1_455
As9_2 Zr13_2 2.909925 1_555
As9_2 Zr31_2 2.925855 1_555
As9_3 Zr25_7 2.772150 1_455
As9_3 Zr25_3 2.772150 1_555
As9_3 Zr28_3 2.778949 1_555
As9_3 Zr3_7 2.794119 1_455
As9_3 Zr3_3 2.794119 1_555
As9_3 Zr13_7 2.909925 1_455
As9_3 Zr13_3 2.909925 1_555
As9_3 Zr31_3 2.925855 1_555
As9_4 Zr25_0 2.772150 1_555
As9_4 Zr25_4 2.772150 1_555
As9_4 Zr28_4 2.778949 1_555
As9_4 Zr3_0 2.794119 1_555
As9_4 Zr3_4 2.794119 1_555
As9_4 Zr13_0 2.909925 1_555
As9_4 Zr13_4 2.909925 1_555
As9_4 Zr31_4 2.925855 1_555
As9_5 Zr25_1 2.772150 1_555
As9_5 Zr25_5 2.772150 1_555
As9_5 Zr28_5 2.778949 1_555
As9_5 Zr3_1 2.794119 1_555
As9_5 Zr3_5 2.794119 1_555
As9_5 Zr13_1 2.909925 1_555
As9_5 Zr13_5 2.909925 1_555
As9_5 Zr31_5 2.925855 1_555
As9_6 Zr25_2 2.772150 1_555
As9_6 Zr25_6 2.772150 1_555
As9_6 Zr28_6 2.778949 1_555
As9_6 Zr3_2 2.794119 1_555
As9_6 Zr3_6 2.794119 1_555
As9_6 Zr13_2 2.909925 1_555
As9_6 Zr13_6 2.909925 1_555
As9_6 Zr31_6 2.925855 1_555
As9_7 Zr25_3 2.772150 1_555
As9_7 Zr25_7 2.772150 1_555
As9_7 Zr28_7 2.778949 1_555
As9_7 Zr3_3 2.794119 1_555
As9_7 Zr3_7 2.794119 1_555
As9_7 Zr13_3 2.909925 1_555
As9_7 Zr13_7 2.909925 1_555
As9_7 Zr31_7 2.925855 1_555
As10_0 Zr0_5 2.767236 1_454
As10_0 Zr0_1 2.767236 1_554
As10_0 Zr26_4 2.775705 1_455
As10_0 Zr26_0 2.775705 1_555
As10_0 Zr29_0 2.843498 1_555
As10_0 Zr14_4 2.882018 1_455
As10_0 Zr14_0 2.882018 1_555
As10_1 Zr0_4 2.767236 1_455
As10_1 Zr0_0 2.767236 1_555
As10_1 Zr26_5 2.775705 1_455
As10_1 Zr26_1 2.775705 1_555
As10_1 Zr29_1 2.843498 1_555
As10_1 Zr14_5 2.882018 1_455
As10_1 Zr14_1 2.882018 1_555
As10_2 Zr0_7 2.767236 1_454
As10_2 Zr0_3 2.767236 1_554
As10_2 Zr26_6 2.775705 1_455
As10_2 Zr26_2 2.775705 1_555
As10_2 Zr29_2 2.843498 1_555
As10_2 Zr14_6 2.882018 1_455
As10_2 Zr14_2 2.882018 1_555
As10_3 Zr0_6 2.767236 1_455
As10_3 Zr0_2 2.767236 1_555
As10_3 Zr26_7 2.775705 1_455
As10_3 Zr26_3 2.775705 1_555
As10_3 Zr29_3 2.843498 1_555
As10_3 Zr14_7 2.882018 1_455
As10_3 Zr14_3 2.882018 1_555
As10_4 Zr0_1 2.767236 1_554
As10_4 Zr0_5 2.767236 1_554
As10_4 Zr26_0 2.775705 1_555
As10_4 Zr26_4 2.775705 1_555
As10_4 Zr29_4 2.843498 1_555
As10_4 Zr14_0 2.882018 1_555
As10_4 Zr14_4 2.882018 1_555
As10_5 Zr0_0 2.767236 1_555
As10_5 Zr0_4 2.767236 1_555
As10_5 Zr26_1 2.775705 1_555
As10_5 Zr26_5 2.775705 1_555
As10_5 Zr29_5 2.843498 1_555
As10_5 Zr14_1 2.882018 1_555
As10_5 Zr14_5 2.882018 1_555
As10_6 Zr0_3 2.767236 1_554
As10_6 Zr0_7 2.767236 1_554
As10_6 Zr26_2 2.775705 1_555
As10_6 Zr26_6 2.775705 1_555
As10_6 Zr29_6 2.843498 1_555
As10_6 Zr14_2 2.882018 1_555
As10_6 Zr14_6 2.882018 1_555
As10_7 Zr0_2 2.767236 1_555
As10_7 Zr0_6 2.767236 1_555
As10_7 Zr26_3 2.775705 1_555
As10_7 Zr26_7 2.775705 1_555
As10_7 Zr29_7 2.843498 1_555
As10_7 Zr14_3 2.882018 1_555
As10_7 Zr14_7 2.882018 1_555
As11_0 Zr1_5 2.767236 1_455
As11_0 Zr1_1 2.767236 1_555
As11_0 Zr27_4 2.775705 1_455
As11_0 Zr27_0 2.775705 1_555
As11_0 Zr29_3 2.843498 1_555
As11_0 Zr15_4 2.882018 1_455
As11_0 Zr15_0 2.882018 1_555
As11_1 Zr1_4 2.767236 1_456
As11_1 Zr1_0 2.767236 1_556
As11_1 Zr27_5 2.775705 1_455
As11_1 Zr27_1 2.775705 1_555
As11_1 Zr29_2 2.843498 1_556
As11_1 Zr15_5 2.882018 1_455
As11_1 Zr15_1 2.882018 1_555
As11_2 Zr1_7 2.767236 1_455
As11_2 Zr1_3 2.767236 1_555
As11_2 Zr27_6 2.775705 1_455
As11_2 Zr27_2 2.775705 1_555
As11_2 Zr29_1 2.843498 1_565
As11_2 Zr15_6 2.882018 1_455
As11_2 Zr15_2 2.882018 1_555
As11_3 Zr1_6 2.767236 1_456
As11_3 Zr1_2 2.767236 1_556
As11_3 Zr27_7 2.775705 1_455
As11_3 Zr27_3 2.775705 1_555
As11_3 Zr29_0 2.843498 1_566
As11_3 Zr15_7 2.882018 1_455
As11_3 Zr15_3 2.882018 1_555
As11_4 Zr1_1 2.767236 1_555
As11_4 Zr1_5 2.767236 1_555
As11_4 Zr27_0 2.775705 1_555
As11_4 Zr27_4 2.775705 1_555
As11_4 Zr29_7 2.843498 1_555
As11_4 Zr15_0 2.882018 1_555
As11_4 Zr15_4 2.882018 1_555
As11_5 Zr1_0 2.767236 1_556
As11_5 Zr1_4 2.767236 1_556
As11_5 Zr27_1 2.775705 1_555
As11_5 Zr27_5 2.775705 1_555
As11_5 Zr29_6 2.843498 1_556
As11_5 Zr15_1 2.882018 1_555
As11_5 Zr15_5 2.882018 1_555
As11_6 Zr1_3 2.767236 1_555
As11_6 Zr1_7 2.767236 1_555
As11_6 Zr27_2 2.775705 1_555
As11_6 Zr27_6 2.775705 1_555
As11_6 Zr29_5 2.843498 1_565
As11_6 Zr15_2 2.882018 1_555
As11_6 Zr15_6 2.882018 1_555
As11_7 Zr1_2 2.767236 1_556
As11_7 Zr1_6 2.767236 1_556
As11_7 Zr27_3 2.775705 1_555
As11_7 Zr27_7 2.775705 1_555
As11_7 Zr29_4 2.843498 1_566
As11_7 Zr15_3 2.882018 1_555
As11_7 Zr15_7 2.882018 1_555
As12_0 Zr4_0 2.715126 1_555
As12_0 Zr16_0 2.722233 1_555
As12_0 Zr16_4 2.722233 1_555
As12_0 Zr20_0 2.727421 1_555
As12_0 Zr8_4 2.745475 1_555
As12_0 Zr8_0 2.745475 1_555
As12_0 Zr7_2 2.882554 1_545
As12_1 Zr4_1 2.715126 1_555
As12_1 Zr16_1 2.722233 1_555
As12_1 Zr16_5 2.722233 1_555
As12_1 Zr20_1 2.727421 1_555
As12_1 Zr8_1 2.745475 1_555
As12_1 Zr8_5 2.745475 1_555
As12_1 Zr7_3 2.882554 1_545
As12_2 Zr4_2 2.715126 1_555
As12_2 Zr16_2 2.722233 1_555
As12_2 Zr16_6 2.722233 1_555
As12_2 Zr20_2 2.727421 1_555
As12_2 Zr8_2 2.745475 1_555
As12_2 Zr8_6 2.745475 1_555
As12_2 Zr7_0 2.882554 1_555
As12_3 Zr4_3 2.715126 1_555
As12_3 Zr16_3 2.722233 1_555
As12_3 Zr16_7 2.722233 1_555
As12_3 Zr20_3 2.727421 1_555
As12_3 Zr8_3 2.745475 1_555
As12_3 Zr8_7 2.745475 1_555
As12_3 Zr7_1 2.882554 1_555
As12_4 Zr4_4 2.715126 1_555
As12_4 Zr16_0 2.722233 1_655
As12_4 Zr16_4 2.722233 1_555
As12_4 Zr20_4 2.727421 1_555
As12_4 Zr8_0 2.745475 1_655
As12_4 Zr8_4 2.745475 1_555
As12_4 Zr7_6 2.882554 1_545
As12_5 Zr4_5 2.715126 1_555
As12_5 Zr16_1 2.722233 1_655
As12_5 Zr16_5 2.722233 1_555
As12_5 Zr20_5 2.727421 1_555
As12_5 Zr8_1 2.745475 1_655
As12_5 Zr8_5 2.745475 1_555
As12_5 Zr7_7 2.882554 1_545
As12_6 Zr4_6 2.715126 1_555
As12_6 Zr16_2 2.722233 1_655
As12_6 Zr16_6 2.722233 1_555
As12_6 Zr20_6 2.727421 1_555
As12_6 Zr8_2 2.745475 1_655
As12_6 Zr8_6 2.745475 1_555
As12_6 Zr7_4 2.882554 1_555
As12_7 Zr4_7 2.715126 1_555
As12_7 Zr16_3 2.722233 1_655
As12_7 Zr16_7 2.722233 1_555
As12_7 Zr20_7 2.727421 1_555
As12_7 Zr8_3 2.745475 1_655
As12_7 Zr8_7 2.745475 1_555
As12_7 Zr7_5 2.882554 1_555
As13_0 Zr5_0 2.715126 1_555
As13_0 Zr17_0 2.722233 1_555
As13_0 Zr17_4 2.722233 1_555
As13_0 Zr21_0 2.727421 1_555
As13_0 Zr9_0 2.745475 1_555
As13_0 Zr9_4 2.745475 1_555
As13_0 Zr6_2 2.882554 1_555
As13_1 Zr5_1 2.715126 1_555
As13_1 Zr17_1 2.722233 1_555
As13_1 Zr17_5 2.722233 1_555
As13_1 Zr21_1 2.727421 1_555
As13_1 Zr9_1 2.745475 1_555
As13_1 Zr9_5 2.745475 1_555
As13_1 Zr6_3 2.882554 1_555
As13_2 Zr5_2 2.715126 1_555
As13_2 Zr17_6 2.722233 1_555
As13_2 Zr17_2 2.722233 1_555
As13_2 Zr21_2 2.727421 1_555
As13_2 Zr9_2 2.745475 1_555
As13_2 Zr9_6 2.745475 1_555
As13_2 Zr6_0 2.882554 1_565
As13_3 Zr5_3 2.715126 1_555
As13_3 Zr17_7 2.722233 1_555
As13_3 Zr17_3 2.722233 1_555
As13_3 Zr21_3 2.727421 1_555
As13_3 Zr9_3 2.745475 1_555
As13_3 Zr9_7 2.745475 1_555
As13_3 Zr6_1 2.882554 1_565
As13_4 Zr5_4 2.715126 1_555
As13_4 Zr17_0 2.722233 1_655
As13_4 Zr17_4 2.722233 1_555
As13_4 Zr21_4 2.727421 1_555
As13_4 Zr9_0 2.745475 1_655
As13_4 Zr9_4 2.745475 1_555
As13_4 Zr6_6 2.882554 1_555
As13_5 Zr5_5 2.715126 1_555
As13_5 Zr17_1 2.722233 1_655
As13_5 Zr17_5 2.722233 1_555
As13_5 Zr21_5 2.727421 1_555
As13_5 Zr9_1 2.745475 1_655
As13_5 Zr9_5 2.745475 1_555
As13_5 Zr6_7 2.882554 1_555
As13_6 Zr5_6 2.715126 1_555
As13_6 Zr17_2 2.722233 1_655
As13_6 Zr17_6 2.722233 1_555
As13_6 Zr21_6 2.727421 1_555
As13_6 Zr9_2 2.745475 1_655
As13_6 Zr9_6 2.745475 1_555
As13_6 Zr6_4 2.882554 1_565
As13_7 Zr5_7 2.715126 1_555
As13_7 Zr17_3 2.722233 1_655
As13_7 Zr17_7 2.722233 1_555
As13_7 Zr21_7 2.727421 1_555
As13_7 Zr9_3 2.745475 1_655
As13_7 Zr9_7 2.745475 1_555
As13_7 Zr6_5 2.882554 1_565
As14_0 Zr22_0 2.721560 1_555
As14_0 Zr18_0 2.727997 1_555
As14_0 Zr18_4 2.727997 1_555
As14_0 Zr6_0 2.728100 1_555
As14_0 Zr10_0 2.734557 1_555
As14_0 Zr10_4 2.734557 1_555
As14_0 Zr5_0 2.835354 1_555
As14_1 Zr22_1 2.721560 1_555
As14_1 Zr18_1 2.727997 1_555
As14_1 Zr18_5 2.727997 1_555
As14_1 Zr6_1 2.728100 1_555
As14_1 Zr10_5 2.734557 1_555
As14_1 Zr10_1 2.734557 1_555
As14_1 Zr5_1 2.835354 1_555
As14_2 Zr22_2 2.721560 1_555
As14_2 Zr18_2 2.727997 1_555
As14_2 Zr18_6 2.727997 1_555
As14_2 Zr6_2 2.728100 1_555
As14_2 Zr10_2 2.734557 1_555
As14_2 Zr10_6 2.734557 1_555
As14_2 Zr5_2 2.835354 1_555
As14_3 Zr22_3 2.721560 1_555
As14_3 Zr18_3 2.727997 1_555
As14_3 Zr18_7 2.727997 1_555
As14_3 Zr6_3 2.728100 1_555
As14_3 Zr10_3 2.734557 1_555
As14_3 Zr10_7 2.734557 1_555
As14_3 Zr5_3 2.835354 1_555
As14_4 Zr22_4 2.721560 1_555
As14_4 Zr18_0 2.727997 1_655
As14_4 Zr18_4 2.727997 1_555
As14_4 Zr6_4 2.728100 1_555
As14_4 Zr10_0 2.734557 1_655
As14_4 Zr10_4 2.734557 1_555
As14_4 Zr5_4 2.835354 1_555
As14_5 Zr22_5 2.721560 1_555
As14_5 Zr18_1 2.727997 1_655
As14_5 Zr18_5 2.727997 1_555
As14_5 Zr6_5 2.728100 1_555
As14_5 Zr10_1 2.734557 1_655
As14_5 Zr10_5 2.734557 1_555
As14_5 Zr5_5 2.835354 1_555
As14_6 Zr22_6 2.721560 1_555
As14_6 Zr18_2 2.727997 1_655
As14_6 Zr18_6 2.727997 1_555
As14_6 Zr6_6 2.728100 1_555
As14_6 Zr10_2 2.734557 1_655
As14_6 Zr10_6 2.734557 1_555
As14_6 Zr5_6 2.835354 1_555
As14_7 Zr22_7 2.721560 1_555
As14_7 Zr18_3 2.727997 1_655
As14_7 Zr18_7 2.727997 1_555
As14_7 Zr6_7 2.728100 1_555
As14_7 Zr10_3 2.734557 1_655
As14_7 Zr10_7 2.734557 1_555
As14_7 Zr5_7 2.835354 1_555
As15_0 Zr23_0 2.721560 1_555
As15_0 Zr19_4 2.727997 1_555
As15_0 Zr19_0 2.727997 1_555
As15_0 Zr7_0 2.728100 1_555
As15_0 Zr11_0 2.734557 1_555
As15_0 Zr11_4 2.734557 1_555
As15_0 Zr4_0 2.835354 1_555
As15_1 Zr23_1 2.721560 1_555
As15_1 Zr19_1 2.727997 1_555
As15_1 Zr19_5 2.727997 1_555
As15_1 Zr7_1 2.728100 1_555
As15_1 Zr11_1 2.734557 1_555
As15_1 Zr11_5 2.734557 1_555
As15_1 Zr4_1 2.835354 1_555
As15_2 Zr23_2 2.721560 1_555
As15_2 Zr19_2 2.727997 1_555
As15_2 Zr19_6 2.727997 1_555
As15_2 Zr7_2 2.728100 1_555
As15_2 Zr11_2 2.734557 1_555
As15_2 Zr11_6 2.734557 1_555
As15_2 Zr4_2 2.835354 1_555
As15_3 Zr23_3 2.721560 1_555
As15_3 Zr19_3 2.727997 1_555
As15_3 Zr19_7 2.727997 1_555
As15_3 Zr7_3 2.728100 1_555
As15_3 Zr11_3 2.734557 1_555
As15_3 Zr11_7 2.734557 1_555
As15_3 Zr4_3 2.835354 1_555
As15_4 Zr23_4 2.721560 1_555
As15_4 Zr19_0 2.727997 1_655
As15_4 Zr19_4 2.727997 1_555
As15_4 Zr7_4 2.728100 1_555
As15_4 Zr11_0 2.734557 1_655
As15_4 Zr11_4 2.734557 1_555
As15_4 Zr4_4 2.835354 1_555
As15_5 Zr23_5 2.721560 1_555
As15_5 Zr19_1 2.727997 1_655
As15_5 Zr19_5 2.727997 1_555
As15_5 Zr7_5 2.728100 1_555
As15_5 Zr11_1 2.734557 1_655
As15_5 Zr11_5 2.734557 1_555
As15_5 Zr4_5 2.835354 1_555
As15_6 Zr23_6 2.721560 1_555
As15_6 Zr19_2 2.727997 1_655
As15_6 Zr19_6 2.727997 1_555
As15_6 Zr7_6 2.728100 1_555
As15_6 Zr11_2 2.734557 1_655
As15_6 Zr11_6 2.734557 1_555
As15_6 Zr4_6 2.835354 1_555
As15_7 Zr23_7 2.721560 1_555
As15_7 Zr19_3 2.727997 1_655
As15_7 Zr19_7 2.727997 1_555
As15_7 Zr7_7 2.728100 1_555
As15_7 Zr11_3 2.734557 1_655
As15_7 Zr11_7 2.734557 1_555
As15_7 Zr4_7 2.835354 1_555
As16_0 Zr15_6 2.773336 1_445
As16_0 Zr15_2 2.773336 1_545
As16_0 Zr20_4 2.786014 1_455
As16_0 Zr20_0 2.786014 1_555
As16_0 Zr0_4 2.809044 1_455
As16_0 Zr0_0 2.809044 1_555
As16_0 Zr16_0 2.847173 1_555
As16_0 Zr29_1 2.938181 1_555
As16_1 Zr15_7 2.773336 1_445
As16_1 Zr15_3 2.773336 1_545
As16_1 Zr20_5 2.786014 1_455
As16_1 Zr20_1 2.786014 1_555
As16_1 Zr0_5 2.809044 1_455
As16_1 Zr0_1 2.809044 1_555
As16_1 Zr16_1 2.847173 1_555
As16_1 Zr29_0 2.938181 1_556
As16_2 Zr15_4 2.773336 1_455
As16_2 Zr15_0 2.773336 1_555
As16_2 Zr20_6 2.786014 1_455
As16_2 Zr20_2 2.786014 1_555
As16_2 Zr0_6 2.809044 1_455
As16_2 Zr0_2 2.809044 1_555
As16_2 Zr16_2 2.847173 1_555
As16_2 Zr29_3 2.938181 1_555
As16_3 Zr15_5 2.773336 1_455
As16_3 Zr15_1 2.773336 1_555
As16_3 Zr20_7 2.786014 1_455
As16_3 Zr20_3 2.786014 1_555
As16_3 Zr0_7 2.809044 1_455
As16_3 Zr0_3 2.809044 1_555
As16_3 Zr16_3 2.847173 1_555
As16_3 Zr29_2 2.938181 1_556
As16_4 Zr15_2 2.773336 1_545
As16_4 Zr15_6 2.773336 1_545
As16_4 Zr20_0 2.786014 1_555
As16_4 Zr20_4 2.786014 1_555
As16_4 Zr0_0 2.809044 1_555
As16_4 Zr0_4 2.809044 1_555
As16_4 Zr16_4 2.847173 1_555
As16_4 Zr29_5 2.938181 1_555
As16_5 Zr15_3 2.773336 1_545
As16_5 Zr15_7 2.773336 1_545
As16_5 Zr20_1 2.786014 1_555
As16_5 Zr20_5 2.786014 1_555
As16_5 Zr0_1 2.809044 1_555
As16_5 Zr0_5 2.809044 1_555
As16_5 Zr16_5 2.847173 1_555
As16_5 Zr29_4 2.938181 1_556
As16_6 Zr15_0 2.773336 1_555
As16_6 Zr15_4 2.773336 1_555
As16_6 Zr20_2 2.786014 1_555
As16_6 Zr20_6 2.786014 1_555
As16_6 Zr0_2 2.809044 1_555
As16_6 Zr0_6 2.809044 1_555
As16_6 Zr16_6 2.847173 1_555
As16_6 Zr29_7 2.938181 1_555
As16_7 Zr15_1 2.773336 1_555
As16_7 Zr15_5 2.773336 1_555
As16_7 Zr20_3 2.786014 1_555
As16_7 Zr20_7 2.786014 1_555
As16_7 Zr0_3 2.809044 1_555
As16_7 Zr0_7 2.809044 1_555
As16_7 Zr16_7 2.847173 1_555
As16_7 Zr29_6 2.938181 1_556
As17_0 Zr14_6 2.773336 1_455
As17_0 Zr14_2 2.773336 1_555
As17_0 Zr21_4 2.786014 1_455
As17_0 Zr21_0 2.786014 1_555
As17_0 Zr1_4 2.809044 1_455
As17_0 Zr1_0 2.809044 1_555
As17_0 Zr17_0 2.847173 1_555
As17_0 Zr29_2 2.938181 1_555
As17_1 Zr14_7 2.773336 1_455
As17_1 Zr14_3 2.773336 1_555
As17_1 Zr21_5 2.786014 1_455
As17_1 Zr21_1 2.786014 1_555
As17_1 Zr1_5 2.809044 1_455
As17_1 Zr1_1 2.809044 1_555
As17_1 Zr17_1 2.847173 1_555
As17_1 Zr29_3 2.938181 1_555
As17_2 Zr14_4 2.773336 1_465
As17_2 Zr14_0 2.773336 1_565
As17_2 Zr21_6 2.786014 1_455
As17_2 Zr21_2 2.786014 1_555
As17_2 Zr1_6 2.809044 1_455
As17_2 Zr1_2 2.809044 1_555
As17_2 Zr17_2 2.847173 1_555
As17_2 Zr29_0 2.938181 1_565
As17_3 Zr14_5 2.773336 1_465
As17_3 Zr14_1 2.773336 1_565
As17_3 Zr21_7 2.786014 1_455
As17_3 Zr21_3 2.786014 1_555
As17_3 Zr1_7 2.809044 1_455
As17_3 Zr1_3 2.809044 1_555
As17_3 Zr17_3 2.847173 1_555
As17_3 Zr29_1 2.938181 1_565
As17_4 Zr14_2 2.773336 1_555
As17_4 Zr14_6 2.773336 1_555
As17_4 Zr21_0 2.786014 1_555
As17_4 Zr21_4 2.786014 1_555
As17_4 Zr1_0 2.809044 1_555
As17_4 Zr1_4 2.809044 1_555
As17_4 Zr17_4 2.847173 1_555
As17_4 Zr29_6 2.938181 1_555
As17_5 Zr14_3 2.773336 1_555
As17_5 Zr14_7 2.773336 1_555
As17_5 Zr21_1 2.786014 1_555
As17_5 Zr21_5 2.786014 1_555
As17_5 Zr1_1 2.809044 1_555
As17_5 Zr1_5 2.809044 1_555
As17_5 Zr17_5 2.847173 1_555
As17_5 Zr29_7 2.938181 1_555
As17_6 Zr14_0 2.773336 1_565
As17_6 Zr14_4 2.773336 1_565
As17_6 Zr21_2 2.786014 1_555
As17_6 Zr21_6 2.786014 1_555
As17_6 Zr1_2 2.809044 1_555
As17_6 Zr1_6 2.809044 1_555
As17_6 Zr17_6 2.847173 1_555
As17_6 Zr29_4 2.938181 1_565
As17_7 Zr14_1 2.773336 1_565
As17_7 Zr14_5 2.773336 1_565
As17_7 Zr21_3 2.786014 1_555
As17_7 Zr21_7 2.786014 1_555
As17_7 Zr1_3 2.809044 1_555
As17_7 Zr1_7 2.809044 1_555
As17_7 Zr17_7 2.847173 1_555
As17_7 Zr29_5 2.938181 1_565
As18_0 Zr22_4 2.790629 1_455
As18_0 Zr22_0 2.790629 1_555
As18_0 Zr13_4 2.821244 1_455
As18_0 Zr13_0 2.821244 1_555
As18_0 Zr2_4 2.876919 1_455
As18_0 Zr2_0 2.876919 1_555
As18_0 Zr18_0 2.964670 1_555
As18_0 Zr28_0 3.004604 1_555
As18_0 Zr31_2 3.104760 1_545
As18_1 Zr22_5 2.790629 1_455
As18_1 Zr22_1 2.790629 1_555
As18_1 Zr13_5 2.821244 1_455
As18_1 Zr13_1 2.821244 1_555
As18_1 Zr2_5 2.876919 1_455
As18_1 Zr2_1 2.876919 1_555
As18_1 Zr18_1 2.964670 1_555
As18_1 Zr28_1 3.004604 1_555
As18_1 Zr31_3 3.104760 1_545
As18_2 Zr22_6 2.790629 1_455
As18_2 Zr22_2 2.790629 1_555
As18_2 Zr13_6 2.821244 1_455
As18_2 Zr13_2 2.821244 1_555
As18_2 Zr2_6 2.876919 1_455
As18_2 Zr2_2 2.876919 1_555
As18_2 Zr18_2 2.964670 1_555
As18_2 Zr28_2 3.004604 1_555
As18_2 Zr31_0 3.104760 1_555
As18_3 Zr22_7 2.790629 1_455
As18_3 Zr22_3 2.790629 1_555
As18_3 Zr13_7 2.821244 1_455
As18_3 Zr13_3 2.821244 1_555
As18_3 Zr2_7 2.876919 1_455
As18_3 Zr2_3 2.876919 1_555
As18_3 Zr18_3 2.964670 1_555
As18_3 Zr28_3 3.004604 1_555
As18_3 Zr31_1 3.104760 1_555
As18_4 Zr22_0 2.790629 1_555
As18_4 Zr22_4 2.790629 1_555
As18_4 Zr13_0 2.821244 1_555
As18_4 Zr13_4 2.821244 1_555
As18_4 Zr2_0 2.876919 1_555
As18_4 Zr2_4 2.876919 1_555
As18_4 Zr18_4 2.964670 1_555
As18_4 Zr28_4 3.004604 1_555
As18_4 Zr31_6 3.104760 1_545
As18_5 Zr22_1 2.790629 1_555
As18_5 Zr22_5 2.790629 1_555
As18_5 Zr13_1 2.821244 1_555
As18_5 Zr13_5 2.821244 1_555
As18_5 Zr2_1 2.876919 1_555
As18_5 Zr2_5 2.876919 1_555
As18_5 Zr18_5 2.964670 1_555
As18_5 Zr28_5 3.004604 1_555
As18_5 Zr31_7 3.104760 1_545
As18_6 Zr22_2 2.790629 1_555
As18_6 Zr22_6 2.790629 1_555
As18_6 Zr13_2 2.821244 1_555
As18_6 Zr13_6 2.821244 1_555
As18_6 Zr2_2 2.876919 1_555
As18_6 Zr2_6 2.876919 1_555
As18_6 Zr18_6 2.964670 1_555
As18_6 Zr28_6 3.004604 1_555
As18_6 Zr31_4 3.104760 1_555
As18_7 Zr22_3 2.790629 1_555
As18_7 Zr22_7 2.790629 1_555
As18_7 Zr13_3 2.821244 1_555
As18_7 Zr13_7 2.821244 1_555
As18_7 Zr2_3 2.876919 1_555
As18_7 Zr2_7 2.876919 1_555
As18_7 Zr18_7 2.964670 1_555
As18_7 Zr28_7 3.004604 1_555
As18_7 Zr31_5 3.104760 1_555
As19_0 Zr23_4 2.790629 1_455
As19_0 Zr23_0 2.790629 1_555
As19_0 Zr12_4 2.821244 1_455
As19_0 Zr12_0 2.821244 1_555
As19_0 Zr3_4 2.876919 1_455
As19_0 Zr3_0 2.876919 1_555
As19_0 Zr19_0 2.964670 1_555
As19_0 Zr28_0 3.004604 1_555
As19_0 Zr30_2 3.104760 1_555
As19_1 Zr23_5 2.790629 1_455
As19_1 Zr23_1 2.790629 1_555
As19_1 Zr12_5 2.821244 1_455
As19_1 Zr12_1 2.821244 1_555
As19_1 Zr3_1 2.876919 1_555
As19_1 Zr3_5 2.876919 1_455
As19_1 Zr19_1 2.964670 1_555
As19_1 Zr28_1 3.004604 1_555
As19_1 Zr30_3 3.104760 1_555
As19_2 Zr23_6 2.790629 1_455
As19_2 Zr23_2 2.790629 1_555
As19_2 Zr12_6 2.821244 1_455
As19_2 Zr12_2 2.821244 1_555
As19_2 Zr3_6 2.876919 1_455
As19_2 Zr3_2 2.876919 1_555
As19_2 Zr19_2 2.964670 1_555
As19_2 Zr28_2 3.004604 1_555
As19_2 Zr30_0 3.104760 1_565
As19_3 Zr23_7 2.790629 1_455
As19_3 Zr23_3 2.790629 1_555
As19_3 Zr12_7 2.821244 1_455
As19_3 Zr12_3 2.821244 1_555
As19_3 Zr3_7 2.876919 1_455
As19_3 Zr3_3 2.876919 1_555
As19_3 Zr19_3 2.964670 1_555
As19_3 Zr28_3 3.004604 1_555
As19_3 Zr30_1 3.104760 1_565
As19_4 Zr23_0 2.790629 1_555
As19_4 Zr23_4 2.790629 1_555
As19_4 Zr12_0 2.821244 1_555
As19_4 Zr12_4 2.821244 1_555
As19_4 Zr3_0 2.876919 1_555
As19_4 Zr3_4 2.876919 1_555
As19_4 Zr19_4 2.964670 1_555
As19_4 Zr28_4 3.004604 1_555
As19_4 Zr30_6 3.104760 1_555
As19_5 Zr23_1 2.790629 1_555
As19_5 Zr23_5 2.790629 1_555
As19_5 Zr12_1 2.821244 1_555
As19_5 Zr12_5 2.821244 1_555
As19_5 Zr3_1 2.876919 1_555
As19_5 Zr3_5 2.876919 1_555
As19_5 Zr19_5 2.964670 1_555
As19_5 Zr28_5 3.004604 1_555
As19_5 Zr30_7 3.104760 1_555
As19_6 Zr23_2 2.790629 1_555
As19_6 Zr23_6 2.790629 1_555
As19_6 Zr12_2 2.821244 1_555
As19_6 Zr12_6 2.821244 1_555
As19_6 Zr3_2 2.876919 1_555
As19_6 Zr3_6 2.876919 1_555
As19_6 Zr19_6 2.964670 1_555
As19_6 Zr28_6 3.004604 1_555
As19_6 Zr30_4 3.104760 1_565
As19_7 Zr23_3 2.790629 1_555
As19_7 Zr23_7 2.790629 1_555
As19_7 Zr12_3 2.821244 1_555
As19_7 Zr12_7 2.821244 1_555
As19_7 Zr3_3 2.876919 1_555
As19_7 Zr3_7 2.876919 1_555
As19_7 Zr19_7 2.964670 1_555
As19_7 Zr28_7 3.004604 1_555
As19_7 Zr30_5 3.104760 1_565
