# generated using pymatgen
data_Cu3Bi2S3Br2
_symmetry_space_group_name_H-M   'P 1'
_cell_length_a   60.49413600
_cell_length_b   7.64022200
_cell_length_c   16.36702665
_cell_angle_alpha   88.19927406
_cell_angle_beta   90.00000000
_cell_angle_gamma   90.00000000
_symmetry_Int_Tables_number   1
_chemical_formula_structural   Cu3Bi2S3Br2
_chemical_formula_sum   'Cu96 Bi64 S96 Br64'
_cell_volume   7560.91789496
_cell_formula_units_Z   32
loop_
 _symmetry_equiv_pos_site_id
 _symmetry_equiv_pos_as_xyz
  1  'x, y, z'
loop_
 _atom_site_type_symbol
 _atom_site_label
 _atom_site_symmetry_multiplicity
 _atom_site_fract_x
 _atom_site_fract_y
 _atom_site_fract_z
 _atom_site_occupancy
  Cu  Cu0_0  1  0.14036100  0.25002050  0.35393350  1
  Cu  Cu0_1  1  0.14036100  0.25002050  0.85393350  1
  Cu  Cu0_2  1  0.14036100  0.75002050  0.35393350  1
  Cu  Cu0_3  1  0.14036100  0.75002050  0.85393350  1
  Cu  Cu0_4  1  0.64036100  0.25002050  0.35393350  1
  Cu  Cu0_5  1  0.64036100  0.25002050  0.85393350  1
  Cu  Cu0_6  1  0.64036100  0.75002050  0.35393350  1
  Cu  Cu0_7  1  0.64036100  0.75002050  0.85393350  1
  Cu  Cu1_0  1  0.35963900  0.24997950  0.14606650  1
  Cu  Cu1_1  1  0.35963900  0.24997950  0.64606650  1
  Cu  Cu1_2  1  0.35963900  0.74997950  0.14606650  1
  Cu  Cu1_3  1  0.35963900  0.74997950  0.64606650  1
  Cu  Cu1_4  1  0.85963900  0.24997950  0.14606650  1
  Cu  Cu1_5  1  0.85963900  0.24997950  0.64606650  1
  Cu  Cu1_6  1  0.85963900  0.74997950  0.14606650  1
  Cu  Cu1_7  1  0.85963900  0.74997950  0.64606650  1
  Cu  Cu2_0  1  0.39036100  0.24997950  0.39606650  1
  Cu  Cu2_1  1  0.39036100  0.24997950  0.89606650  1
  Cu  Cu2_2  1  0.39036100  0.74997950  0.39606650  1
  Cu  Cu2_3  1  0.39036100  0.74997950  0.89606650  1
  Cu  Cu2_4  1  0.89036100  0.24997950  0.39606650  1
  Cu  Cu2_5  1  0.89036100  0.24997950  0.89606650  1
  Cu  Cu2_6  1  0.89036100  0.74997950  0.39606650  1
  Cu  Cu2_7  1  0.89036100  0.74997950  0.89606650  1
  Cu  Cu3_0  1  0.10963900  0.25002050  0.10393350  1
  Cu  Cu3_1  1  0.10963900  0.25002050  0.60393350  1
  Cu  Cu3_2  1  0.10963900  0.75002050  0.10393350  1
  Cu  Cu3_3  1  0.10963900  0.75002050  0.60393350  1
  Cu  Cu3_4  1  0.60963900  0.25002050  0.10393350  1
  Cu  Cu3_5  1  0.60963900  0.25002050  0.60393350  1
  Cu  Cu3_6  1  0.60963900  0.75002050  0.10393350  1
  Cu  Cu3_7  1  0.60963900  0.75002050  0.60393350  1
  Cu  Cu4_0  1  0.19868250  0.00089500  0.22246350  1
  Cu  Cu4_1  1  0.19868250  0.00089500  0.72246350  1
  Cu  Cu4_2  1  0.19868250  0.50089500  0.22246350  1
  Cu  Cu4_3  1  0.19868250  0.50089500  0.72246350  1
  Cu  Cu4_4  1  0.69868250  0.00089500  0.22246350  1
  Cu  Cu4_5  1  0.69868250  0.00089500  0.72246350  1
  Cu  Cu4_6  1  0.69868250  0.50089500  0.22246350  1
  Cu  Cu4_7  1  0.69868250  0.50089500  0.72246350  1
  Cu  Cu5_0  1  0.30131750  0.49910500  0.27753650  1
  Cu  Cu5_1  1  0.30131750  0.49910500  0.77753650  1
  Cu  Cu5_2  1  0.30131750  0.99910500  0.27753650  1
  Cu  Cu5_3  1  0.30131750  0.99910500  0.77753650  1
  Cu  Cu5_4  1  0.80131750  0.49910500  0.27753650  1
  Cu  Cu5_5  1  0.80131750  0.49910500  0.77753650  1
  Cu  Cu5_6  1  0.80131750  0.99910500  0.27753650  1
  Cu  Cu5_7  1  0.80131750  0.99910500  0.77753650  1
  Cu  Cu6_0  1  0.44868250  0.49910500  0.02753650  1
  Cu  Cu6_1  1  0.44868250  0.49910500  0.52753650  1
  Cu  Cu6_2  1  0.44868250  0.99910500  0.02753650  1
  Cu  Cu6_3  1  0.44868250  0.99910500  0.52753650  1
  Cu  Cu6_4  1  0.94868250  0.49910500  0.02753650  1
  Cu  Cu6_5  1  0.94868250  0.49910500  0.52753650  1
  Cu  Cu6_6  1  0.94868250  0.99910500  0.02753650  1
  Cu  Cu6_7  1  0.94868250  0.99910500  0.52753650  1
  Cu  Cu7_0  1  0.05131750  0.00089500  0.47246350  1
  Cu  Cu7_1  1  0.05131750  0.00089500  0.97246350  1
  Cu  Cu7_2  1  0.05131750  0.50089500  0.47246350  1
  Cu  Cu7_3  1  0.05131750  0.50089500  0.97246350  1
  Cu  Cu7_4  1  0.55131750  0.00089500  0.47246350  1
  Cu  Cu7_5  1  0.55131750  0.00089500  0.97246350  1
  Cu  Cu7_6  1  0.55131750  0.50089500  0.47246350  1
  Cu  Cu7_7  1  0.55131750  0.50089500  0.97246350  1
  Cu  Cu8_0  1  0.11491550  0.00069750  0.45440300  1
  Cu  Cu8_1  1  0.11491550  0.00069750  0.95440300  1
  Cu  Cu8_2  1  0.11491550  0.50069750  0.45440300  1
  Cu  Cu8_3  1  0.11491550  0.50069750  0.95440300  1
  Cu  Cu8_4  1  0.61491550  0.00069750  0.45440300  1
  Cu  Cu8_5  1  0.61491550  0.00069750  0.95440300  1
  Cu  Cu8_6  1  0.61491550  0.50069750  0.45440300  1
  Cu  Cu8_7  1  0.61491550  0.50069750  0.95440300  1
  Cu  Cu9_0  1  0.38508450  0.49930250  0.04559700  1
  Cu  Cu9_1  1  0.38508450  0.49930250  0.54559700  1
  Cu  Cu9_2  1  0.38508450  0.99930250  0.04559700  1
  Cu  Cu9_3  1  0.38508450  0.99930250  0.54559700  1
  Cu  Cu9_4  1  0.88508450  0.49930250  0.04559700  1
  Cu  Cu9_5  1  0.88508450  0.49930250  0.54559700  1
  Cu  Cu9_6  1  0.88508450  0.99930250  0.04559700  1
  Cu  Cu9_7  1  0.88508450  0.99930250  0.54559700  1
  Cu  Cu10_0  1  0.36491550  0.49930250  0.29559700  1
  Cu  Cu10_1  1  0.36491550  0.49930250  0.79559700  1
  Cu  Cu10_2  1  0.36491550  0.99930250  0.29559700  1
  Cu  Cu10_3  1  0.36491550  0.99930250  0.79559700  1
  Cu  Cu10_4  1  0.86491550  0.49930250  0.29559700  1
  Cu  Cu10_5  1  0.86491550  0.49930250  0.79559700  1
  Cu  Cu10_6  1  0.86491550  0.99930250  0.29559700  1
  Cu  Cu10_7  1  0.86491550  0.99930250  0.79559700  1
  Cu  Cu11_0  1  0.13508450  0.00069750  0.20440300  1
  Cu  Cu11_1  1  0.13508450  0.00069750  0.70440300  1
  Cu  Cu11_2  1  0.13508450  0.50069750  0.20440300  1
  Cu  Cu11_3  1  0.13508450  0.50069750  0.70440300  1
  Cu  Cu11_4  1  0.63508450  0.00069750  0.20440300  1
  Cu  Cu11_5  1  0.63508450  0.00069750  0.70440300  1
  Cu  Cu11_6  1  0.63508450  0.50069750  0.20440300  1
  Cu  Cu11_7  1  0.63508450  0.50069750  0.70440300  1
  Bi  Bi0_0  1  0.17448350  0.25194900  0.02952900  1
  Bi  Bi0_1  1  0.17448350  0.25194900  0.52952900  1
  Bi  Bi0_2  1  0.17448350  0.75194900  0.02952900  1
  Bi  Bi0_3  1  0.17448350  0.75194900  0.52952900  1
  Bi  Bi0_4  1  0.67448350  0.25194900  0.02952900  1
  Bi  Bi0_5  1  0.67448350  0.25194900  0.52952900  1
  Bi  Bi0_6  1  0.67448350  0.75194900  0.02952900  1
  Bi  Bi0_7  1  0.67448350  0.75194900  0.52952900  1
  Bi  Bi1_0  1  0.32551650  0.24805100  0.47047100  1
  Bi  Bi1_1  1  0.32551650  0.24805100  0.97047100  1
  Bi  Bi1_2  1  0.32551650  0.74805100  0.47047100  1
  Bi  Bi1_3  1  0.32551650  0.74805100  0.97047100  1
  Bi  Bi1_4  1  0.82551650  0.24805100  0.47047100  1
  Bi  Bi1_5  1  0.82551650  0.24805100  0.97047100  1
  Bi  Bi1_6  1  0.82551650  0.74805100  0.47047100  1
  Bi  Bi1_7  1  0.82551650  0.74805100  0.97047100  1
  Bi  Bi2_0  1  0.42448350  0.24805100  0.22047100  1
  Bi  Bi2_1  1  0.42448350  0.24805100  0.72047100  1
  Bi  Bi2_2  1  0.42448350  0.74805100  0.22047100  1
  Bi  Bi2_3  1  0.42448350  0.74805100  0.72047100  1
  Bi  Bi2_4  1  0.92448350  0.24805100  0.22047100  1
  Bi  Bi2_5  1  0.92448350  0.24805100  0.72047100  1
  Bi  Bi2_6  1  0.92448350  0.74805100  0.22047100  1
  Bi  Bi2_7  1  0.92448350  0.74805100  0.72047100  1
  Bi  Bi3_0  1  0.07551650  0.25194900  0.27952900  1
  Bi  Bi3_1  1  0.07551650  0.25194900  0.77952900  1
  Bi  Bi3_2  1  0.07551650  0.75194900  0.27952900  1
  Bi  Bi3_3  1  0.07551650  0.75194900  0.77952900  1
  Bi  Bi3_4  1  0.57551650  0.25194900  0.27952900  1
  Bi  Bi3_5  1  0.57551650  0.25194900  0.77952900  1
  Bi  Bi3_6  1  0.57551650  0.75194900  0.27952900  1
  Bi  Bi3_7  1  0.57551650  0.75194900  0.77952900  1
  Bi  Bi4_0  1  0.24735450  0.20160000  0.36327600  1
  Bi  Bi4_1  1  0.24735450  0.20160000  0.86327600  1
  Bi  Bi4_2  1  0.24735450  0.70160000  0.36327600  1
  Bi  Bi4_3  1  0.24735450  0.70160000  0.86327600  1
  Bi  Bi4_4  1  0.74735450  0.20160000  0.36327600  1
  Bi  Bi4_5  1  0.74735450  0.20160000  0.86327600  1
  Bi  Bi4_6  1  0.74735450  0.70160000  0.36327600  1
  Bi  Bi4_7  1  0.74735450  0.70160000  0.86327600  1
  Bi  Bi5_0  1  0.49735450  0.29840000  0.38672400  1
  Bi  Bi5_1  1  0.49735450  0.29840000  0.88672400  1
  Bi  Bi5_2  1  0.49735450  0.79840000  0.38672400  1
  Bi  Bi5_3  1  0.49735450  0.79840000  0.88672400  1
  Bi  Bi5_4  1  0.99735450  0.29840000  0.38672400  1
  Bi  Bi5_5  1  0.99735450  0.29840000  0.88672400  1
  Bi  Bi5_6  1  0.99735450  0.79840000  0.38672400  1
  Bi  Bi5_7  1  0.99735450  0.79840000  0.88672400  1
  Bi  Bi6_0  1  0.25264550  0.29840000  0.13672400  1
  Bi  Bi6_1  1  0.25264550  0.29840000  0.63672400  1
  Bi  Bi6_2  1  0.25264550  0.79840000  0.13672400  1
  Bi  Bi6_3  1  0.25264550  0.79840000  0.63672400  1
  Bi  Bi6_4  1  0.75264550  0.29840000  0.13672400  1
  Bi  Bi6_5  1  0.75264550  0.29840000  0.63672400  1
  Bi  Bi6_6  1  0.75264550  0.79840000  0.13672400  1
  Bi  Bi6_7  1  0.75264550  0.79840000  0.63672400  1
  Bi  Bi7_0  1  0.00264550  0.20160000  0.11327600  1
  Bi  Bi7_1  1  0.00264550  0.20160000  0.61327600  1
  Bi  Bi7_2  1  0.00264550  0.70160000  0.11327600  1
  Bi  Bi7_3  1  0.00264550  0.70160000  0.61327600  1
  Bi  Bi7_4  1  0.50264550  0.20160000  0.11327600  1
  Bi  Bi7_5  1  0.50264550  0.20160000  0.61327600  1
  Bi  Bi7_6  1  0.50264550  0.70160000  0.11327600  1
  Bi  Bi7_7  1  0.50264550  0.70160000  0.61327600  1
  S  S0_0  1  0.13109650  0.24875800  0.49206350  1
  S  S0_1  1  0.13109650  0.24875800  0.99206350  1
  S  S0_2  1  0.13109650  0.74875800  0.49206350  1
  S  S0_3  1  0.13109650  0.74875800  0.99206350  1
  S  S0_4  1  0.63109650  0.24875800  0.49206350  1
  S  S0_5  1  0.63109650  0.24875800  0.99206350  1
  S  S0_6  1  0.63109650  0.74875800  0.49206350  1
  S  S0_7  1  0.63109650  0.74875800  0.99206350  1
  S  S1_0  1  0.36890350  0.25124200  0.00793650  1
  S  S1_1  1  0.36890350  0.25124200  0.50793650  1
  S  S1_2  1  0.36890350  0.75124200  0.00793650  1
  S  S1_3  1  0.36890350  0.75124200  0.50793650  1
  S  S1_4  1  0.86890350  0.25124200  0.00793650  1
  S  S1_5  1  0.86890350  0.25124200  0.50793650  1
  S  S1_6  1  0.86890350  0.75124200  0.00793650  1
  S  S1_7  1  0.86890350  0.75124200  0.50793650  1
  S  S2_0  1  0.38109650  0.25124200  0.25793650  1
  S  S2_1  1  0.38109650  0.25124200  0.75793650  1
  S  S2_2  1  0.38109650  0.75124200  0.25793650  1
  S  S2_3  1  0.38109650  0.75124200  0.75793650  1
  S  S2_4  1  0.88109650  0.25124200  0.25793650  1
  S  S2_5  1  0.88109650  0.25124200  0.75793650  1
  S  S2_6  1  0.88109650  0.75124200  0.25793650  1
  S  S2_7  1  0.88109650  0.75124200  0.75793650  1
  S  S3_0  1  0.11890350  0.24875800  0.24206350  1
  S  S3_1  1  0.11890350  0.24875800  0.74206350  1
  S  S3_2  1  0.11890350  0.74875800  0.24206350  1
  S  S3_3  1  0.11890350  0.74875800  0.74206350  1
  S  S3_4  1  0.61890350  0.24875800  0.24206350  1
  S  S3_5  1  0.61890350  0.24875800  0.74206350  1
  S  S3_6  1  0.61890350  0.74875800  0.24206350  1
  S  S3_7  1  0.61890350  0.74875800  0.74206350  1
  S  S4_0  1  0.21865850  0.25009200  0.23833000  1
  S  S4_1  1  0.21865850  0.25009200  0.73833000  1
  S  S4_2  1  0.21865850  0.75009200  0.23833000  1
  S  S4_3  1  0.21865850  0.75009200  0.73833000  1
  S  S4_4  1  0.71865850  0.25009200  0.23833000  1
  S  S4_5  1  0.71865850  0.25009200  0.73833000  1
  S  S4_6  1  0.71865850  0.75009200  0.23833000  1
  S  S4_7  1  0.71865850  0.75009200  0.73833000  1
  S  S5_0  1  0.28134150  0.24990800  0.26167000  1
  S  S5_1  1  0.28134150  0.24990800  0.76167000  1
  S  S5_2  1  0.28134150  0.74990800  0.26167000  1
  S  S5_3  1  0.28134150  0.74990800  0.76167000  1
  S  S5_4  1  0.78134150  0.24990800  0.26167000  1
  S  S5_5  1  0.78134150  0.24990800  0.76167000  1
  S  S5_6  1  0.78134150  0.74990800  0.26167000  1
  S  S5_7  1  0.78134150  0.74990800  0.76167000  1
  S  S6_0  1  0.46865850  0.24990800  0.01167000  1
  S  S6_1  1  0.46865850  0.24990800  0.51167000  1
  S  S6_2  1  0.46865850  0.74990800  0.01167000  1
  S  S6_3  1  0.46865850  0.74990800  0.51167000  1
  S  S6_4  1  0.96865850  0.24990800  0.01167000  1
  S  S6_5  1  0.96865850  0.24990800  0.51167000  1
  S  S6_6  1  0.96865850  0.74990800  0.01167000  1
  S  S6_7  1  0.96865850  0.74990800  0.51167000  1
  S  S7_0  1  0.03134150  0.25009200  0.48833000  1
  S  S7_1  1  0.03134150  0.25009200  0.98833000  1
  S  S7_2  1  0.03134150  0.75009200  0.48833000  1
  S  S7_3  1  0.03134150  0.75009200  0.98833000  1
  S  S7_4  1  0.53134150  0.25009200  0.48833000  1
  S  S7_5  1  0.53134150  0.25009200  0.98833000  1
  S  S7_6  1  0.53134150  0.75009200  0.48833000  1
  S  S7_7  1  0.53134150  0.75009200  0.98833000  1
  S  S8_0  1  0.16809200  0.49697000  0.14264800  1
  S  S8_1  1  0.16809200  0.49697000  0.64264800  1
  S  S8_2  1  0.16809200  0.99697000  0.14264800  1
  S  S8_3  1  0.16809200  0.99697000  0.64264800  1
  S  S8_4  1  0.66809200  0.49697000  0.14264800  1
  S  S8_5  1  0.66809200  0.49697000  0.64264800  1
  S  S8_6  1  0.66809200  0.99697000  0.14264800  1
  S  S8_7  1  0.66809200  0.99697000  0.64264800  1
  S  S9_0  1  0.33190800  0.00303000  0.35735200  1
  S  S9_1  1  0.33190800  0.00303000  0.85735200  1
  S  S9_2  1  0.33190800  0.50303000  0.35735200  1
  S  S9_3  1  0.33190800  0.50303000  0.85735200  1
  S  S9_4  1  0.83190800  0.00303000  0.35735200  1
  S  S9_5  1  0.83190800  0.00303000  0.85735200  1
  S  S9_6  1  0.83190800  0.50303000  0.35735200  1
  S  S9_7  1  0.83190800  0.50303000  0.85735200  1
  S  S10_0  1  0.41809200  0.00303000  0.10735200  1
  S  S10_1  1  0.41809200  0.00303000  0.60735200  1
  S  S10_2  1  0.41809200  0.50303000  0.10735200  1
  S  S10_3  1  0.41809200  0.50303000  0.60735200  1
  S  S10_4  1  0.91809200  0.00303000  0.10735200  1
  S  S10_5  1  0.91809200  0.00303000  0.60735200  1
  S  S10_6  1  0.91809200  0.50303000  0.10735200  1
  S  S10_7  1  0.91809200  0.50303000  0.60735200  1
  S  S11_0  1  0.08190800  0.49697000  0.39264800  1
  S  S11_1  1  0.08190800  0.49697000  0.89264800  1
  S  S11_2  1  0.08190800  0.99697000  0.39264800  1
  S  S11_3  1  0.08190800  0.99697000  0.89264800  1
  S  S11_4  1  0.58190800  0.49697000  0.39264800  1
  S  S11_5  1  0.58190800  0.49697000  0.89264800  1
  S  S11_6  1  0.58190800  0.99697000  0.39264800  1
  S  S11_7  1  0.58190800  0.99697000  0.89264800  1
  Br  Br0_0  1  0.21838100  0.49923050  0.01393250  1
  Br  Br0_1  1  0.21838100  0.49923050  0.51393250  1
  Br  Br0_2  1  0.21838100  0.99923050  0.01393250  1
  Br  Br0_3  1  0.21838100  0.99923050  0.51393250  1
  Br  Br0_4  1  0.71838100  0.49923050  0.01393250  1
  Br  Br0_5  1  0.71838100  0.49923050  0.51393250  1
  Br  Br0_6  1  0.71838100  0.99923050  0.01393250  1
  Br  Br0_7  1  0.71838100  0.99923050  0.51393250  1
  Br  Br1_0  1  0.28161900  0.00076950  0.48606750  1
  Br  Br1_1  1  0.28161900  0.00076950  0.98606750  1
  Br  Br1_2  1  0.28161900  0.50076950  0.48606750  1
  Br  Br1_3  1  0.28161900  0.50076950  0.98606750  1
  Br  Br1_4  1  0.78161900  0.00076950  0.48606750  1
  Br  Br1_5  1  0.78161900  0.00076950  0.98606750  1
  Br  Br1_6  1  0.78161900  0.50076950  0.48606750  1
  Br  Br1_7  1  0.78161900  0.50076950  0.98606750  1
  Br  Br2_0  1  0.46838100  0.00076950  0.23606750  1
  Br  Br2_1  1  0.46838100  0.00076950  0.73606750  1
  Br  Br2_2  1  0.46838100  0.50076950  0.23606750  1
  Br  Br2_3  1  0.46838100  0.50076950  0.73606750  1
  Br  Br2_4  1  0.96838100  0.00076950  0.23606750  1
  Br  Br2_5  1  0.96838100  0.00076950  0.73606750  1
  Br  Br2_6  1  0.96838100  0.50076950  0.23606750  1
  Br  Br2_7  1  0.96838100  0.50076950  0.73606750  1
  Br  Br3_0  1  0.03161900  0.49923050  0.26393250  1
  Br  Br3_1  1  0.03161900  0.49923050  0.76393250  1
  Br  Br3_2  1  0.03161900  0.99923050  0.26393250  1
  Br  Br3_3  1  0.03161900  0.99923050  0.76393250  1
  Br  Br3_4  1  0.53161900  0.49923050  0.26393250  1
  Br  Br3_5  1  0.53161900  0.49923050  0.76393250  1
  Br  Br3_6  1  0.53161900  0.99923050  0.26393250  1
  Br  Br3_7  1  0.53161900  0.99923050  0.76393250  1
  Br  Br4_0  1  0.17121000  0.00126750  0.36120900  1
  Br  Br4_1  1  0.17121000  0.00126750  0.86120900  1
  Br  Br4_2  1  0.17121000  0.50126750  0.36120900  1
  Br  Br4_3  1  0.17121000  0.50126750  0.86120900  1
  Br  Br4_4  1  0.67121000  0.00126750  0.36120900  1
  Br  Br4_5  1  0.67121000  0.00126750  0.86120900  1
  Br  Br4_6  1  0.67121000  0.50126750  0.36120900  1
  Br  Br4_7  1  0.67121000  0.50126750  0.86120900  1
  Br  Br5_0  1  0.32879000  0.49873250  0.13879100  1
  Br  Br5_1  1  0.32879000  0.49873250  0.63879100  1
  Br  Br5_2  1  0.32879000  0.99873250  0.13879100  1
  Br  Br5_3  1  0.32879000  0.99873250  0.63879100  1
  Br  Br5_4  1  0.82879000  0.49873250  0.13879100  1
  Br  Br5_5  1  0.82879000  0.49873250  0.63879100  1
  Br  Br5_6  1  0.82879000  0.99873250  0.13879100  1
  Br  Br5_7  1  0.82879000  0.99873250  0.63879100  1
  Br  Br6_0  1  0.42121000  0.49873250  0.38879100  1
  Br  Br6_1  1  0.42121000  0.49873250  0.88879100  1
  Br  Br6_2  1  0.42121000  0.99873250  0.38879100  1
  Br  Br6_3  1  0.42121000  0.99873250  0.88879100  1
  Br  Br6_4  1  0.92121000  0.49873250  0.38879100  1
  Br  Br6_5  1  0.92121000  0.49873250  0.88879100  1
  Br  Br6_6  1  0.92121000  0.99873250  0.38879100  1
  Br  Br6_7  1  0.92121000  0.99873250  0.88879100  1
  Br  Br7_0  1  0.07879000  0.00126750  0.11120900  1
  Br  Br7_1  1  0.07879000  0.00126750  0.61120900  1
  Br  Br7_2  1  0.07879000  0.50126750  0.11120900  1
  Br  Br7_3  1  0.07879000  0.50126750  0.61120900  1
  Br  Br7_4  1  0.57879000  0.00126750  0.11120900  1
  Br  Br7_5  1  0.57879000  0.00126750  0.61120900  1
  Br  Br7_6  1  0.57879000  0.50126750  0.11120900  1
  Br  Br7_7  1  0.57879000  0.50126750  0.61120900  1
loop_
_geom_bond_atom_site_label_1
_geom_bond_atom_site_label_2
_geom_bond_distance
_geom_bond_site_symmetry_2
Cu0_0 S3_0 2.244689 1_555
Cu0_0 S0_0 2.328935 1_555
Cu0_0 Cu8_0 2.916365 1_555
Cu0_0 Cu8_2 2.989898 1_555
Cu0_0 Cu11_2 3.076528 1_555
Cu0_1 S3_1 2.244689 1_555
Cu0_1 S0_1 2.328935 1_555
Cu0_1 Cu8_1 2.916365 1_555
Cu0_1 Cu8_3 2.989898 1_555
Cu0_1 Cu11_3 3.076528 1_555
Cu0_2 S3_2 2.244689 1_555
Cu0_2 S0_2 2.328935 1_555
Cu0_2 Cu8_2 2.916365 1_555
Cu0_2 Cu8_0 2.989898 1_565
Cu0_2 Cu11_0 3.076528 1_565
Cu0_3 S3_3 2.244689 1_555
Cu0_3 S0_3 2.328935 1_555
Cu0_3 Cu8_3 2.916365 1_555
Cu0_3 Cu8_1 2.989898 1_565
Cu0_3 Cu11_1 3.076528 1_565
Cu0_4 S3_4 2.244689 1_555
Cu0_4 S0_4 2.328935 1_555
Cu0_4 Cu8_4 2.916365 1_555
Cu0_4 Cu8_6 2.989898 1_555
Cu0_4 Cu11_6 3.076528 1_555
Cu0_5 S3_5 2.244689 1_555
Cu0_5 S0_5 2.328935 1_555
Cu0_5 Cu8_5 2.916365 1_555
Cu0_5 Cu8_7 2.989898 1_555
Cu0_5 Cu11_7 3.076528 1_555
Cu0_6 S3_6 2.244689 1_555
Cu0_6 S0_6 2.328935 1_555
Cu0_6 Cu8_6 2.916365 1_555
Cu0_6 Cu8_4 2.989898 1_565
Cu0_6 Cu11_4 3.076528 1_565
Cu0_7 S3_7 2.244689 1_555
Cu0_7 S0_7 2.328935 1_555
Cu0_7 Cu8_7 2.916365 1_555
Cu0_7 Cu8_5 2.989898 1_565
Cu0_7 Cu11_5 3.076528 1_565
Cu1_0 S2_0 2.244689 1_555
Cu1_0 S1_0 2.328935 1_555
Cu1_0 Cu9_0 2.916365 1_555
Cu1_0 Cu9_2 2.989898 1_545
Cu1_1 S2_1 2.244689 1_555
Cu1_1 S1_1 2.328935 1_555
Cu1_1 Cu9_1 2.916365 1_555
Cu1_1 Cu9_3 2.989898 1_545
Cu1_2 S2_2 2.244689 1_555
Cu1_2 S1_2 2.328935 1_555
Cu1_2 Cu9_2 2.916365 1_555
Cu1_2 Cu9_0 2.989898 1_555
Cu1_3 S2_3 2.244689 1_555
Cu1_3 S1_3 2.328935 1_555
Cu1_3 Cu9_3 2.916365 1_555
Cu1_3 Cu9_1 2.989898 1_555
Cu1_4 S2_4 2.244689 1_555
Cu1_4 S1_4 2.328935 1_555
Cu1_4 Cu9_4 2.916365 1_555
Cu1_4 Cu9_6 2.989898 1_545
Cu1_5 S2_5 2.244689 1_555
Cu1_5 S1_5 2.328935 1_555
Cu1_5 Cu9_5 2.916365 1_555
Cu1_5 Cu9_7 2.989898 1_545
Cu1_6 S2_6 2.244689 1_555
Cu1_6 S1_6 2.328935 1_555
Cu1_6 Cu9_6 2.916365 1_555
Cu1_6 Cu9_4 2.989898 1_555
Cu1_7 S2_7 2.244689 1_555
Cu1_7 S1_7 2.328935 1_555
Cu1_7 Cu9_7 2.916365 1_555
Cu1_7 Cu9_5 2.989898 1_555
Cu2_0 S1_1 2.244689 1_555
Cu2_0 S2_0 2.328935 1_555
Cu2_0 Cu9_3 3.076528 1_545
Cu2_1 S1_0 2.244689 1_556
Cu2_1 S2_1 2.328935 1_555
Cu2_1 Cu9_2 3.076528 1_546
Cu2_2 S1_3 2.244689 1_555
Cu2_2 S2_2 2.328935 1_555
Cu2_2 Cu9_1 3.076528 1_555
Cu2_3 S1_2 2.244689 1_556
Cu2_3 S2_3 2.328935 1_555
Cu2_3 Cu9_0 3.076528 1_556
Cu2_4 S1_5 2.244689 1_555
Cu2_4 S2_4 2.328935 1_555
Cu2_4 Cu9_7 3.076528 1_545
Cu2_5 S1_4 2.244689 1_556
Cu2_5 S2_5 2.328935 1_555
Cu2_5 Cu9_6 3.076528 1_546
Cu2_6 S1_7 2.244689 1_555
Cu2_6 S2_6 2.328935 1_555
Cu2_6 Cu9_5 3.076528 1_555
Cu2_7 S1_6 2.244689 1_556
Cu2_7 S2_7 2.328935 1_555
Cu2_7 Cu9_4 3.076528 1_556
Cu3_0 S0_1 2.244689 1_554
Cu3_0 S3_0 2.328935 1_555
Cu3_0 Cu8_3 3.076528 1_554
Cu3_1 S0_0 2.244689 1_555
Cu3_1 S3_1 2.328935 1_555
Cu3_1 Cu8_2 3.076528 1_555
Cu3_2 S0_3 2.244689 1_554
Cu3_2 S3_2 2.328935 1_555
Cu3_2 Cu8_1 3.076528 1_564
Cu3_3 S0_2 2.244689 1_555
Cu3_3 S3_3 2.328935 1_555
Cu3_3 Cu8_0 3.076528 1_565
Cu3_4 S0_5 2.244689 1_554
Cu3_4 S3_4 2.328935 1_555
Cu3_4 Cu8_7 3.076528 1_554
Cu3_5 S0_4 2.244689 1_555
Cu3_5 S3_5 2.328935 1_555
Cu3_5 Cu8_6 3.076528 1_555
Cu3_6 S0_7 2.244689 1_554
Cu3_6 S3_6 2.328935 1_555
Cu3_6 Cu8_5 3.076528 1_564
Cu3_7 S0_6 2.244689 1_555
Cu3_7 S3_7 2.328935 1_555
Cu3_7 Cu8_4 3.076528 1_565
Cu4_0 S8_2 2.265924 1_545
Cu4_0 S4_2 2.273380 1_545
Cu4_0 S4_0 2.276780 1_555
Cu4_1 S8_3 2.265924 1_545
Cu4_1 S4_3 2.273380 1_545
Cu4_1 S4_1 2.276780 1_555
Cu4_2 S8_0 2.265924 1_555
Cu4_2 S4_0 2.273380 1_555
Cu4_2 S4_2 2.276780 1_555
Cu4_3 S8_1 2.265924 1_555
Cu4_3 S4_1 2.273380 1_555
Cu4_3 S4_3 2.276780 1_555
Cu4_4 S8_6 2.265924 1_545
Cu4_4 S4_6 2.273380 1_545
Cu4_4 S4_4 2.276780 1_555
Cu4_5 S8_7 2.265924 1_545
Cu4_5 S4_7 2.273380 1_545
Cu4_5 S4_5 2.276780 1_555
Cu4_6 S8_4 2.265924 1_555
Cu4_6 S4_4 2.273380 1_555
Cu4_6 S4_6 2.276780 1_555
Cu4_7 S8_5 2.265924 1_555
Cu4_7 S4_5 2.273380 1_555
Cu4_7 S4_7 2.276780 1_555
Cu5_0 S9_2 2.265924 1_555
Cu5_0 S5_2 2.273380 1_555
Cu5_0 S5_0 2.276780 1_555
Cu5_1 S9_3 2.265924 1_555
Cu5_1 S5_3 2.273380 1_555
Cu5_1 S5_1 2.276780 1_555
Cu5_2 S9_0 2.265924 1_565
Cu5_2 S5_0 2.273380 1_565
Cu5_2 S5_2 2.276780 1_555
Cu5_3 S9_1 2.265924 1_565
Cu5_3 S5_1 2.273380 1_565
Cu5_3 S5_3 2.276780 1_555
Cu5_4 S9_6 2.265924 1_555
Cu5_4 S5_6 2.273380 1_555
Cu5_4 S5_4 2.276780 1_555
Cu5_5 S9_7 2.265924 1_555
Cu5_5 S5_7 2.273380 1_555
Cu5_5 S5_5 2.276780 1_555
Cu5_6 S9_4 2.265924 1_565
Cu5_6 S5_4 2.273380 1_565
Cu5_6 S5_6 2.276780 1_555
Cu5_7 S9_5 2.265924 1_565
Cu5_7 S5_5 2.273380 1_565
Cu5_7 S5_7 2.276780 1_555
Cu6_0 S10_2 2.265924 1_555
Cu6_0 S6_2 2.273380 1_555
Cu6_0 S6_0 2.276780 1_555
Cu6_1 S10_3 2.265924 1_555
Cu6_1 S6_3 2.273380 1_555
Cu6_1 S6_1 2.276780 1_555
Cu6_2 S10_0 2.265924 1_565
Cu6_2 S6_0 2.273380 1_565
Cu6_2 S6_2 2.276780 1_555
Cu6_3 S10_1 2.265924 1_565
Cu6_3 S6_1 2.273380 1_565
Cu6_3 S6_3 2.276780 1_555
Cu6_4 S10_6 2.265924 1_555
Cu6_4 S6_6 2.273380 1_555
Cu6_4 S6_4 2.276780 1_555
Cu6_5 S10_7 2.265924 1_555
Cu6_5 S6_7 2.273380 1_555
Cu6_5 S6_5 2.276780 1_555
Cu6_6 S10_4 2.265924 1_565
Cu6_6 S6_4 2.273380 1_565
Cu6_6 S6_6 2.276780 1_555
Cu6_7 S10_5 2.265924 1_565
Cu6_7 S6_5 2.273380 1_565
Cu6_7 S6_7 2.276780 1_555
Cu7_0 S11_2 2.265924 1_545
Cu7_0 S7_2 2.273380 1_545
Cu7_0 S7_0 2.276780 1_555
Cu7_1 S11_3 2.265924 1_545
Cu7_1 S7_3 2.273380 1_545
Cu7_1 S7_1 2.276780 1_555
Cu7_2 S11_0 2.265924 1_555
Cu7_2 S7_0 2.273380 1_555
Cu7_2 S7_2 2.276780 1_555
Cu7_3 S11_1 2.265924 1_555
Cu7_3 S7_1 2.273380 1_555
Cu7_3 S7_3 2.276780 1_555
Cu7_4 S11_6 2.265924 1_545
Cu7_4 S7_6 2.273380 1_545
Cu7_4 S7_4 2.276780 1_555
Cu7_5 S11_7 2.265924 1_545
Cu7_5 S7_7 2.273380 1_545
Cu7_5 S7_5 2.276780 1_555
Cu7_6 S11_4 2.265924 1_555
Cu7_6 S7_4 2.273380 1_555
Cu7_6 S7_6 2.276780 1_555
Cu7_7 S11_5 2.265924 1_555
Cu7_7 S7_5 2.273380 1_555
Cu7_7 S7_7 2.276780 1_555
Cu8_0 S0_2 2.229051 1_545
Cu8_0 S0_0 2.236837 1_555
Cu8_0 S11_2 2.238588 1_545
Cu8_1 S0_3 2.229051 1_545
Cu8_1 S0_1 2.236837 1_555
Cu8_1 S11_3 2.238588 1_545
Cu8_2 S0_0 2.229051 1_555
Cu8_2 S0_2 2.236837 1_555
Cu8_2 S11_0 2.238588 1_555
Cu8_3 S0_1 2.229051 1_555
Cu8_3 S0_3 2.236837 1_555
Cu8_3 S11_1 2.238588 1_555
Cu8_4 S0_6 2.229051 1_545
Cu8_4 S0_4 2.236837 1_555
Cu8_4 S11_6 2.238588 1_545
Cu8_5 S0_7 2.229051 1_545
Cu8_5 S0_5 2.236837 1_555
Cu8_5 S11_7 2.238588 1_545
Cu8_6 S0_4 2.229051 1_555
Cu8_6 S0_6 2.236837 1_555
Cu8_6 S11_4 2.238588 1_555
Cu8_7 S0_5 2.229051 1_555
Cu8_7 S0_7 2.236837 1_555
Cu8_7 S11_5 2.238588 1_555
Cu9_0 S1_2 2.229051 1_555
Cu9_0 S1_0 2.236837 1_555
Cu9_0 S10_2 2.238588 1_555
Cu9_1 S1_3 2.229051 1_555
Cu9_1 S1_1 2.236837 1_555
Cu9_1 S10_3 2.238588 1_555
Cu9_2 S1_0 2.229051 1_565
Cu9_2 S1_2 2.236837 1_555
Cu9_2 S10_0 2.238588 1_565
Cu9_3 S1_1 2.229051 1_565
Cu9_3 S1_3 2.236837 1_555
Cu9_3 S10_1 2.238588 1_565
Cu9_4 S1_6 2.229051 1_555
Cu9_4 S1_4 2.236837 1_555
Cu9_4 S10_6 2.238588 1_555
Cu9_5 S1_7 2.229051 1_555
Cu9_5 S1_5 2.236837 1_555
Cu9_5 S10_7 2.238588 1_555
Cu9_6 S1_4 2.229051 1_565
Cu9_6 S1_6 2.236837 1_555
Cu9_6 S10_4 2.238588 1_565
Cu9_7 S1_5 2.229051 1_565
Cu9_7 S1_7 2.236837 1_555
Cu9_7 S10_5 2.238588 1_565
Cu10_0 S2_2 2.229051 1_555
Cu10_0 S2_0 2.236837 1_555
Cu10_0 S9_2 2.238588 1_555
Cu10_0 Cu2_0 2.916365 1_555
Cu10_0 Cu2_2 2.989898 1_555
Cu10_0 Cu1_2 3.076528 1_555
Cu10_1 S2_3 2.229051 1_555
Cu10_1 S2_1 2.236837 1_555
Cu10_1 S9_3 2.238588 1_555
Cu10_1 Cu2_1 2.916365 1_555
Cu10_1 Cu2_3 2.989898 1_555
Cu10_1 Cu1_3 3.076528 1_555
Cu10_2 S2_0 2.229051 1_565
Cu10_2 S2_2 2.236837 1_555
Cu10_2 S9_0 2.238588 1_565
Cu10_2 Cu2_2 2.916365 1_555
Cu10_2 Cu2_0 2.989898 1_565
Cu10_2 Cu1_0 3.076528 1_565
Cu10_3 S2_1 2.229051 1_565
Cu10_3 S2_3 2.236837 1_555
Cu10_3 S9_1 2.238588 1_565
Cu10_3 Cu2_3 2.916365 1_555
Cu10_3 Cu2_1 2.989898 1_565
Cu10_3 Cu1_1 3.076528 1_565
Cu10_4 S2_6 2.229051 1_555
Cu10_4 S2_4 2.236837 1_555
Cu10_4 S9_6 2.238588 1_555
Cu10_4 Cu2_4 2.916365 1_555
Cu10_4 Cu2_6 2.989898 1_555
Cu10_4 Cu1_6 3.076528 1_555
Cu10_5 S2_7 2.229051 1_555
Cu10_5 S2_5 2.236837 1_555
Cu10_5 S9_7 2.238588 1_555
Cu10_5 Cu2_5 2.916365 1_555
Cu10_5 Cu2_7 2.989898 1_555
Cu10_5 Cu1_7 3.076528 1_555
Cu10_6 S2_4 2.229051 1_565
Cu10_6 S2_6 2.236837 1_555
Cu10_6 S9_4 2.238588 1_565
Cu10_6 Cu2_6 2.916365 1_555
Cu10_6 Cu2_4 2.989898 1_565
Cu10_6 Cu1_4 3.076528 1_565
Cu10_7 S2_5 2.229051 1_565
Cu10_7 S2_7 2.236837 1_555
Cu10_7 S9_5 2.238588 1_565
Cu10_7 Cu2_7 2.916365 1_555
Cu10_7 Cu2_5 2.989898 1_565
Cu10_7 Cu1_5 3.076528 1_565
Cu11_0 S3_2 2.229051 1_545
Cu11_0 S3_0 2.236837 1_555
Cu11_0 S8_2 2.238588 1_545
Cu11_0 Cu3_0 2.916365 1_555
Cu11_0 Cu3_2 2.989898 1_545
Cu11_1 S3_3 2.229051 1_545
Cu11_1 S3_1 2.236837 1_555
Cu11_1 S8_3 2.238588 1_545
Cu11_1 Cu3_1 2.916365 1_555
Cu11_1 Cu3_3 2.989898 1_545
Cu11_2 S3_0 2.229051 1_555
Cu11_2 S3_2 2.236837 1_555
Cu11_2 S8_0 2.238588 1_555
Cu11_2 Cu3_2 2.916365 1_555
Cu11_2 Cu3_0 2.989898 1_555
Cu11_3 S3_1 2.229051 1_555
Cu11_3 S3_3 2.236837 1_555
Cu11_3 S8_1 2.238588 1_555
Cu11_3 Cu3_3 2.916365 1_555
Cu11_3 Cu3_1 2.989898 1_555
Cu11_4 S3_6 2.229051 1_545
Cu11_4 S3_4 2.236837 1_555
Cu11_4 S8_6 2.238588 1_545
Cu11_4 Cu3_4 2.916365 1_555
Cu11_4 Cu3_6 2.989898 1_545
Cu11_5 S3_7 2.229051 1_545
Cu11_5 S3_5 2.236837 1_555
Cu11_5 S8_7 2.238588 1_545
Cu11_5 Cu3_5 2.916365 1_555
Cu11_5 Cu3_7 2.989898 1_545
Cu11_6 S3_4 2.229051 1_555
Cu11_6 S3_6 2.236837 1_555
Cu11_6 S8_4 2.238588 1_555
Cu11_6 Cu3_6 2.916365 1_555
Cu11_6 Cu3_4 2.989898 1_555
Cu11_7 S3_5 2.229051 1_555
Cu11_7 S3_7 2.236837 1_555
Cu11_7 S8_5 2.238588 1_555
Cu11_7 Cu3_7 2.916365 1_555
Cu11_7 Cu3_5 2.989898 1_555
Bi0_0 S8_2 2.673138 1_545
Bi0_0 S0_1 2.695623 1_554
Bi0_0 S8_0 2.701762 1_555
Bi0_0 Br0_0 3.264376 1_555
Bi0_0 Br0_2 3.297897 1_545
Bi0_0 Br4_3 3.305651 1_554
Bi0_0 Br4_1 3.410060 1_554
Bi0_1 S8_3 2.673138 1_545
Bi0_1 S0_0 2.695623 1_555
Bi0_1 S8_1 2.701762 1_555
Bi0_1 Br0_1 3.264376 1_555
Bi0_1 Br0_3 3.297897 1_545
Bi0_1 Br4_2 3.305651 1_555
Bi0_1 Br4_0 3.410060 1_555
Bi0_2 S8_0 2.673138 1_555
Bi0_2 S0_3 2.695623 1_554
Bi0_2 S8_2 2.701762 1_555
Bi0_2 Br0_2 3.264376 1_555
Bi0_2 Br0_0 3.297897 1_555
Bi0_2 Br4_1 3.305651 1_564
Bi0_2 Br4_3 3.410060 1_554
Bi0_3 S8_1 2.673138 1_555
Bi0_3 S0_2 2.695623 1_555
Bi0_3 S8_3 2.701762 1_555
Bi0_3 Br0_3 3.264376 1_555
Bi0_3 Br0_1 3.297897 1_555
Bi0_3 Br4_0 3.305651 1_565
Bi0_3 Br4_2 3.410060 1_555
Bi0_4 S8_6 2.673138 1_545
Bi0_4 S0_5 2.695623 1_554
Bi0_4 S8_4 2.701762 1_555
Bi0_4 Br0_4 3.264376 1_555
Bi0_4 Br0_6 3.297897 1_545
Bi0_4 Br4_7 3.305651 1_554
Bi0_4 Br4_5 3.410060 1_554
Bi0_5 S8_7 2.673138 1_545
Bi0_5 S0_4 2.695623 1_555
Bi0_5 S8_5 2.701762 1_555
Bi0_5 Br0_5 3.264376 1_555
Bi0_5 Br0_7 3.297897 1_545
Bi0_5 Br4_6 3.305651 1_555
Bi0_5 Br4_4 3.410060 1_555
Bi0_6 S8_4 2.673138 1_555
Bi0_6 S0_7 2.695623 1_554
Bi0_6 S8_6 2.701762 1_555
Bi0_6 Br0_6 3.264376 1_555
Bi0_6 Br0_4 3.297897 1_555
Bi0_6 Br4_5 3.305651 1_564
Bi0_6 Br4_7 3.410060 1_554
Bi0_7 S8_5 2.673138 1_555
Bi0_7 S0_6 2.695623 1_555
Bi0_7 S8_7 2.701762 1_555
Bi0_7 Br0_7 3.264376 1_555
Bi0_7 Br0_5 3.297897 1_555
Bi0_7 Br4_4 3.305651 1_565
Bi0_7 Br4_6 3.410060 1_555
Bi1_0 S9_2 2.673138 1_555
Bi1_0 S1_1 2.695623 1_555
Bi1_0 S9_0 2.701762 1_555
Bi1_0 Br1_0 3.264376 1_555
Bi1_0 Br1_2 3.297897 1_555
Bi1_0 Br5_3 3.305651 1_545
Bi1_0 Br5_1 3.410060 1_555
Bi1_1 S9_3 2.673138 1_555
Bi1_1 S1_0 2.695623 1_556
Bi1_1 S9_1 2.701762 1_555
Bi1_1 Br1_1 3.264376 1_555
Bi1_1 Br1_3 3.297897 1_555
Bi1_1 Br5_2 3.305651 1_546
Bi1_1 Br5_0 3.410060 1_556
Bi1_2 S9_0 2.673138 1_565
Bi1_2 S1_3 2.695623 1_555
Bi1_2 S9_2 2.701762 1_555
Bi1_2 Br1_2 3.264376 1_555
Bi1_2 Br1_0 3.297897 1_565
Bi1_2 Br5_1 3.305651 1_555
Bi1_2 Br5_3 3.410060 1_555
Bi1_3 S9_1 2.673138 1_565
Bi1_3 S1_2 2.695623 1_556
Bi1_3 S9_3 2.701762 1_555
Bi1_3 Br1_3 3.264376 1_555
Bi1_3 Br1_1 3.297897 1_565
Bi1_3 Br5_0 3.305651 1_556
Bi1_3 Br5_2 3.410060 1_556
Bi1_4 S9_6 2.673138 1_555
Bi1_4 S1_5 2.695623 1_555
Bi1_4 S9_4 2.701762 1_555
Bi1_4 Br1_4 3.264376 1_555
Bi1_4 Br1_6 3.297897 1_555
Bi1_4 Br5_7 3.305651 1_545
Bi1_4 Br5_5 3.410060 1_555
Bi1_5 S9_7 2.673138 1_555
Bi1_5 S1_4 2.695623 1_556
Bi1_5 S9_5 2.701762 1_555
Bi1_5 Br1_5 3.264376 1_555
Bi1_5 Br1_7 3.297897 1_555
Bi1_5 Br5_6 3.305651 1_546
Bi1_5 Br5_4 3.410060 1_556
Bi1_6 S9_4 2.673138 1_565
Bi1_6 S1_7 2.695623 1_555
Bi1_6 S9_6 2.701762 1_555
Bi1_6 Br1_6 3.264376 1_555
Bi1_6 Br1_4 3.297897 1_565
Bi1_6 Br5_5 3.305651 1_555
Bi1_6 Br5_7 3.410060 1_555
Bi1_7 S9_5 2.673138 1_565
Bi1_7 S1_6 2.695623 1_556
Bi1_7 S9_7 2.701762 1_555
Bi1_7 Br1_7 3.264376 1_555
Bi1_7 Br1_5 3.297897 1_565
Bi1_7 Br5_4 3.305651 1_556
Bi1_7 Br5_6 3.410060 1_556
Bi2_0 S10_2 2.673138 1_555
Bi2_0 S2_0 2.695623 1_555
Bi2_0 S10_0 2.701762 1_555
Bi2_0 Br2_0 3.264376 1_555
Bi2_0 Br2_2 3.297897 1_555
Bi2_0 Br6_2 3.305651 1_545
Bi2_0 Br6_0 3.410060 1_555
Bi2_1 S10_3 2.673138 1_555
Bi2_1 S2_1 2.695623 1_555
Bi2_1 S10_1 2.701762 1_555
Bi2_1 Br2_1 3.264376 1_555
Bi2_1 Br2_3 3.297897 1_555
Bi2_1 Br6_3 3.305651 1_545
Bi2_1 Br6_1 3.410060 1_555
Bi2_2 S10_0 2.673138 1_565
Bi2_2 S2_2 2.695623 1_555
Bi2_2 S10_2 2.701762 1_555
Bi2_2 Br2_2 3.264376 1_555
Bi2_2 Br2_0 3.297897 1_565
Bi2_2 Br6_0 3.305651 1_555
Bi2_2 Br6_2 3.410060 1_555
Bi2_3 S10_1 2.673138 1_565
Bi2_3 S2_3 2.695623 1_555
Bi2_3 S10_3 2.701762 1_555
Bi2_3 Br2_3 3.264376 1_555
Bi2_3 Br2_1 3.297897 1_565
Bi2_3 Br6_1 3.305651 1_555
Bi2_3 Br6_3 3.410060 1_555
Bi2_4 S10_6 2.673138 1_555
Bi2_4 S2_4 2.695623 1_555
Bi2_4 S10_4 2.701762 1_555
Bi2_4 Br2_4 3.264376 1_555
Bi2_4 Br2_6 3.297897 1_555
Bi2_4 Br6_6 3.305651 1_545
Bi2_4 Br6_4 3.410060 1_555
Bi2_5 S10_7 2.673138 1_555
Bi2_5 S2_5 2.695623 1_555
Bi2_5 S10_5 2.701762 1_555
Bi2_5 Br2_5 3.264376 1_555
Bi2_5 Br2_7 3.297897 1_555
Bi2_5 Br6_7 3.305651 1_545
Bi2_5 Br6_5 3.410060 1_555
Bi2_6 S10_4 2.673138 1_565
Bi2_6 S2_6 2.695623 1_555
Bi2_6 S10_6 2.701762 1_555
Bi2_6 Br2_6 3.264376 1_555
Bi2_6 Br2_4 3.297897 1_565
Bi2_6 Br6_4 3.305651 1_555
Bi2_6 Br6_6 3.410060 1_555
Bi2_7 S10_5 2.673138 1_565
Bi2_7 S2_7 2.695623 1_555
Bi2_7 S10_7 2.701762 1_555
Bi2_7 Br2_7 3.264376 1_555
Bi2_7 Br2_5 3.297897 1_565
Bi2_7 Br6_5 3.305651 1_555
Bi2_7 Br6_7 3.410060 1_555
Bi3_0 S11_2 2.673138 1_545
Bi3_0 S3_0 2.695623 1_555
Bi3_0 S11_0 2.701762 1_555
Bi3_0 Br3_0 3.264376 1_555
Bi3_0 Br3_2 3.297897 1_545
Bi3_0 Br7_2 3.305651 1_555
Bi3_0 Br7_0 3.410060 1_555
Bi3_1 S11_3 2.673138 1_545
Bi3_1 S3_1 2.695623 1_555
Bi3_1 S11_1 2.701762 1_555
Bi3_1 Br3_1 3.264376 1_555
Bi3_1 Br3_3 3.297897 1_545
Bi3_1 Br7_3 3.305651 1_555
Bi3_1 Br7_1 3.410060 1_555
Bi3_2 S11_0 2.673138 1_555
Bi3_2 S3_2 2.695623 1_555
Bi3_2 S11_2 2.701762 1_555
Bi3_2 Br3_2 3.264376 1_555
Bi3_2 Br3_0 3.297897 1_555
Bi3_2 Br7_0 3.305651 1_565
Bi3_2 Br7_2 3.410060 1_555
Bi3_3 S11_1 2.673138 1_555
Bi3_3 S3_3 2.695623 1_555
Bi3_3 S11_3 2.701762 1_555
Bi3_3 Br3_3 3.264376 1_555
Bi3_3 Br3_1 3.297897 1_555
Bi3_3 Br7_1 3.305651 1_565
Bi3_3 Br7_3 3.410060 1_555
Bi3_4 S11_6 2.673138 1_545
Bi3_4 S3_4 2.695623 1_555
Bi3_4 S11_4 2.701762 1_555
Bi3_4 Br3_4 3.264376 1_555
Bi3_4 Br3_6 3.297897 1_545
Bi3_4 Br7_6 3.305651 1_555
Bi3_4 Br7_4 3.410060 1_555
Bi3_5 S11_7 2.673138 1_545
Bi3_5 S3_5 2.695623 1_555
Bi3_5 S11_5 2.701762 1_555
Bi3_5 Br3_5 3.264376 1_555
Bi3_5 Br3_7 3.297897 1_545
Bi3_5 Br7_7 3.305651 1_555
Bi3_5 Br7_5 3.410060 1_555
Bi3_6 S11_4 2.673138 1_555
Bi3_6 S3_6 2.695623 1_555
Bi3_6 S11_6 2.701762 1_555
Bi3_6 Br3_6 3.264376 1_555
Bi3_6 Br3_4 3.297897 1_555
Bi3_6 Br7_4 3.305651 1_565
Bi3_6 Br7_6 3.410060 1_555
Bi3_7 S11_5 2.673138 1_555
Bi3_7 S3_7 2.695623 1_555
Bi3_7 S11_7 2.701762 1_555
Bi3_7 Br3_7 3.264376 1_555
Bi3_7 Br3_5 3.297897 1_555
Bi3_7 Br7_5 3.305651 1_565
Bi3_7 Br7_7 3.410060 1_555
Bi4_0 S5_0 2.662775 1_555
Bi4_0 S4_0 2.699099 1_555
Bi4_0 Br1_0 3.239765 1_555
Bi4_0 Br0_3 3.362021 1_545
Bi4_0 Br1_2 3.721391 1_555
Bi4_0 Br0_1 3.830863 1_555
Bi4_1 S5_1 2.662775 1_555
Bi4_1 S4_1 2.699099 1_555
Bi4_1 Br1_1 3.239765 1_555
Bi4_1 Br0_2 3.362021 1_546
Bi4_1 Br1_3 3.721391 1_555
Bi4_1 Br0_0 3.830863 1_556
Bi4_2 S5_2 2.662775 1_555
Bi4_2 S4_2 2.699099 1_555
Bi4_2 Br1_2 3.239765 1_555
Bi4_2 Br0_1 3.362021 1_555
Bi4_2 Br1_0 3.721391 1_565
Bi4_2 Br0_3 3.830863 1_555
Bi4_3 S5_3 2.662775 1_555
Bi4_3 S4_3 2.699099 1_555
Bi4_3 Br1_3 3.239765 1_555
Bi4_3 Br0_0 3.362021 1_556
Bi4_3 Br1_1 3.721391 1_565
Bi4_3 Br0_2 3.830863 1_556
Bi4_4 S5_4 2.662775 1_555
Bi4_4 S4_4 2.699099 1_555
Bi4_4 Br1_4 3.239765 1_555
Bi4_4 Br0_7 3.362021 1_545
Bi4_4 Br1_6 3.721391 1_555
Bi4_4 Br0_5 3.830863 1_555
Bi4_5 S5_5 2.662775 1_555
Bi4_5 S4_5 2.699099 1_555
Bi4_5 Br1_5 3.239765 1_555
Bi4_5 Br0_6 3.362021 1_546
Bi4_5 Br1_7 3.721391 1_555
Bi4_5 Br0_4 3.830863 1_556
Bi4_6 S5_6 2.662775 1_555
Bi4_6 S4_6 2.699099 1_555
Bi4_6 Br1_6 3.239765 1_555
Bi4_6 Br0_5 3.362021 1_555
Bi4_6 Br1_4 3.721391 1_565
Bi4_6 Br0_7 3.830863 1_555
Bi4_7 S5_7 2.662775 1_555
Bi4_7 S4_7 2.699099 1_555
Bi4_7 Br1_7 3.239765 1_555
Bi4_7 Br0_4 3.362021 1_556
Bi4_7 Br1_5 3.721391 1_565
Bi4_7 Br0_6 3.830863 1_556
Bi5_0 S7_4 2.662775 1_555
Bi5_0 S6_1 2.699099 1_555
Bi5_0 Br3_4 3.239765 1_555
Bi5_0 Br2_2 3.362021 1_555
Bi5_0 Br3_6 3.721391 1_545
Bi5_0 Br2_0 3.830863 1_555
Bi5_1 S7_5 2.662775 1_555
Bi5_1 S6_0 2.699099 1_556
Bi5_1 Br3_5 3.239765 1_555
Bi5_1 Br2_3 3.362021 1_555
Bi5_1 Br3_7 3.721391 1_545
Bi5_1 Br2_1 3.830863 1_555
Bi5_2 S7_6 2.662775 1_555
Bi5_2 S6_3 2.699099 1_555
Bi5_2 Br3_6 3.239765 1_555
Bi5_2 Br2_0 3.362021 1_565
Bi5_2 Br3_4 3.721391 1_555
Bi5_2 Br2_2 3.830863 1_555
Bi5_3 S7_7 2.662775 1_555
Bi5_3 S6_2 2.699099 1_556
Bi5_3 Br3_7 3.239765 1_555
Bi5_3 Br2_1 3.362021 1_565
Bi5_3 Br3_5 3.721391 1_555
Bi5_3 Br2_3 3.830863 1_555
Bi5_4 S7_0 2.662775 1_655
Bi5_4 S6_5 2.699099 1_555
Bi5_4 Br3_0 3.239765 1_655
Bi5_4 Br2_6 3.362021 1_555
Bi5_4 Br3_2 3.721391 1_645
Bi5_4 Br2_4 3.830863 1_555
Bi5_5 S7_1 2.662775 1_655
Bi5_5 S6_4 2.699099 1_556
Bi5_5 Br3_1 3.239765 1_655
Bi5_5 Br2_7 3.362021 1_555
Bi5_5 Br3_3 3.721391 1_645
Bi5_5 Br2_5 3.830863 1_555
Bi5_6 S7_2 2.662775 1_655
Bi5_6 S6_7 2.699099 1_555
Bi5_6 Br3_2 3.239765 1_655
Bi5_6 Br2_4 3.362021 1_565
Bi5_6 Br3_0 3.721391 1_655
Bi5_6 Br2_6 3.830863 1_555
Bi5_7 S7_3 2.662775 1_655
Bi5_7 S6_6 2.699099 1_556
Bi5_7 Br3_3 3.239765 1_655
Bi5_7 Br2_5 3.362021 1_565
Bi5_7 Br3_1 3.721391 1_655
Bi5_7 Br2_7 3.830863 1_555
Bi6_0 S4_0 2.662775 1_555
Bi6_0 S5_0 2.699099 1_555
Bi6_0 Br0_0 3.239765 1_555
Bi6_0 Br1_3 3.362021 1_554
Bi6_0 Br0_2 3.721391 1_545
Bi6_0 Br1_1 3.830863 1_554
Bi6_1 S4_1 2.662775 1_555
Bi6_1 S5_1 2.699099 1_555
Bi6_1 Br0_1 3.239765 1_555
Bi6_1 Br1_2 3.362021 1_555
Bi6_1 Br0_3 3.721391 1_545
Bi6_1 Br1_0 3.830863 1_555
Bi6_2 S4_2 2.662775 1_555
Bi6_2 S5_2 2.699099 1_555
Bi6_2 Br0_2 3.239765 1_555
Bi6_2 Br1_1 3.362021 1_564
Bi6_2 Br0_0 3.721391 1_555
Bi6_2 Br1_3 3.830863 1_554
Bi6_3 S4_3 2.662775 1_555
Bi6_3 S5_3 2.699099 1_555
Bi6_3 Br0_3 3.239765 1_555
Bi6_3 Br1_0 3.362021 1_565
Bi6_3 Br0_1 3.721391 1_555
Bi6_3 Br1_2 3.830863 1_555
Bi6_4 S4_4 2.662775 1_555
Bi6_4 S5_4 2.699099 1_555
Bi6_4 Br0_4 3.239765 1_555
Bi6_4 Br1_7 3.362021 1_554
Bi6_4 Br0_6 3.721391 1_545
Bi6_4 Br1_5 3.830863 1_554
Bi6_5 S4_5 2.662775 1_555
Bi6_5 S5_5 2.699099 1_555
Bi6_5 Br0_5 3.239765 1_555
Bi6_5 Br1_6 3.362021 1_555
Bi6_5 Br0_7 3.721391 1_545
Bi6_5 Br1_4 3.830863 1_555
Bi6_6 S4_6 2.662775 1_555
Bi6_6 S5_6 2.699099 1_555
Bi6_6 Br0_6 3.239765 1_555
Bi6_6 Br1_5 3.362021 1_564
Bi6_6 Br0_4 3.721391 1_555
Bi6_6 Br1_7 3.830863 1_554
Bi6_7 S4_7 2.662775 1_555
Bi6_7 S5_7 2.699099 1_555
Bi6_7 Br0_7 3.239765 1_555
Bi6_7 Br1_4 3.362021 1_565
Bi6_7 Br0_5 3.721391 1_555
Bi6_7 Br1_6 3.830863 1_555
Bi7_0 S6_4 2.662775 1_455
Bi7_0 S7_1 2.699099 1_554
Bi7_0 Br2_4 3.239765 1_455
Bi7_0 Br3_2 3.362021 1_545
Bi7_0 Br2_6 3.721391 1_455
Bi7_0 Br3_0 3.830863 1_555
Bi7_1 S6_5 2.662775 1_455
Bi7_1 S7_0 2.699099 1_555
Bi7_1 Br2_5 3.239765 1_455
Bi7_1 Br3_3 3.362021 1_545
Bi7_1 Br2_7 3.721391 1_455
Bi7_1 Br3_1 3.830863 1_555
Bi7_2 S6_6 2.662775 1_455
Bi7_2 S7_3 2.699099 1_554
Bi7_2 Br2_6 3.239765 1_455
Bi7_2 Br3_0 3.362021 1_555
Bi7_2 Br2_4 3.721391 1_465
Bi7_2 Br3_2 3.830863 1_555
Bi7_3 S6_7 2.662775 1_455
Bi7_3 S7_2 2.699099 1_555
Bi7_3 Br2_7 3.239765 1_455
Bi7_3 Br3_1 3.362021 1_555
Bi7_3 Br2_5 3.721391 1_465
Bi7_3 Br3_3 3.830863 1_555
Bi7_4 S6_0 2.662775 1_555
Bi7_4 S7_5 2.699099 1_554
Bi7_4 Br2_0 3.239765 1_555
Bi7_4 Br3_6 3.362021 1_545
Bi7_4 Br2_2 3.721391 1_555
Bi7_4 Br3_4 3.830863 1_555
Bi7_5 S6_1 2.662775 1_555
Bi7_5 S7_4 2.699099 1_555
Bi7_5 Br2_1 3.239765 1_555
Bi7_5 Br3_7 3.362021 1_545
Bi7_5 Br2_3 3.721391 1_555
Bi7_5 Br3_5 3.830863 1_555
Bi7_6 S6_2 2.662775 1_555
Bi7_6 S7_7 2.699099 1_554
Bi7_6 Br2_2 3.239765 1_555
Bi7_6 Br3_4 3.362021 1_555
Bi7_6 Br2_0 3.721391 1_565
Bi7_6 Br3_6 3.830863 1_555
Bi7_7 S6_3 2.662775 1_555
Bi7_7 S7_6 2.699099 1_555
Bi7_7 Br2_3 3.239765 1_555
Bi7_7 Br3_5 3.362021 1_555
Bi7_7 Br2_1 3.721391 1_565
Bi7_7 Br3_7 3.830863 1_555
Br0_0 Cu4_2 3.615480 1_555
Br0_0 Br4_3 3.793257 1_554
Br0_0 Br0_2 3.820111 1_545
Br0_0 Br0_2 3.820111 1_555
Br0_0 Br1_3 3.852592 1_554
Br0_1 Cu4_3 3.615480 1_555
Br0_1 Br4_2 3.793257 1_555
Br0_1 Br0_3 3.820111 1_545
Br0_1 Br0_3 3.820111 1_555
Br0_1 Br1_2 3.852592 1_555
Br0_2 Cu4_0 3.615480 1_565
Br0_2 Br4_1 3.793257 1_564
Br0_2 Br1_1 3.852592 1_564
Br0_3 Cu4_1 3.615480 1_565
Br0_3 Br4_0 3.793257 1_565
Br0_3 Br1_0 3.852592 1_565
Br0_4 Cu4_6 3.615480 1_555
Br0_4 Br4_7 3.793257 1_554
Br0_4 Br0_6 3.820111 1_545
Br0_4 Br0_6 3.820111 1_555
Br0_4 Br1_7 3.852592 1_554
Br0_5 Cu4_7 3.615480 1_555
Br0_5 Br4_6 3.793257 1_555
Br0_5 Br0_7 3.820111 1_545
Br0_5 Br0_7 3.820111 1_555
Br0_5 Br1_6 3.852592 1_555
Br0_6 Cu4_4 3.615480 1_565
Br0_6 Br4_5 3.793257 1_564
Br0_6 Br1_5 3.852592 1_564
Br0_7 Cu4_5 3.615480 1_565
Br0_7 Br4_4 3.793257 1_565
Br0_7 Br1_4 3.852592 1_565
Br1_0 Cu5_2 3.615480 1_545
Br1_0 Br5_3 3.793257 1_545
Br1_0 Br1_2 3.820111 1_545
Br1_0 Br1_2 3.820111 1_555
Br1_1 Cu5_3 3.615480 1_545
Br1_1 Br5_2 3.793257 1_546
Br1_1 Br1_3 3.820111 1_545
Br1_1 Br1_3 3.820111 1_555
Br1_2 Cu5_0 3.615480 1_555
Br1_2 Br5_1 3.793257 1_555
Br1_3 Cu5_1 3.615480 1_555
Br1_3 Br5_0 3.793257 1_556
Br1_4 Cu5_6 3.615480 1_545
Br1_4 Br5_7 3.793257 1_545
Br1_4 Br1_6 3.820111 1_555
Br1_4 Br1_6 3.820111 1_545
Br1_5 Cu5_7 3.615480 1_545
Br1_5 Br5_6 3.793257 1_546
Br1_5 Br1_7 3.820111 1_545
Br1_5 Br1_7 3.820111 1_555
Br1_6 Cu5_4 3.615480 1_555
Br1_6 Br5_5 3.793257 1_555
Br1_7 Cu5_5 3.615480 1_555
Br1_7 Br5_4 3.793257 1_556
Br2_0 Cu6_2 3.615480 1_545
Br2_0 Br6_2 3.793257 1_545
Br2_0 Br2_2 3.820111 1_545
Br2_0 Br2_2 3.820111 1_555
Br2_0 Br3_6 3.852592 1_545
Br2_1 Cu6_3 3.615480 1_545
Br2_1 Br6_3 3.793257 1_545
Br2_1 Br2_3 3.820111 1_545
Br2_1 Br2_3 3.820111 1_555
Br2_1 Br3_7 3.852592 1_545
Br2_2 Cu6_0 3.615480 1_555
Br2_2 Br6_0 3.793257 1_555
Br2_2 Br3_4 3.852592 1_555
Br2_3 Cu6_1 3.615480 1_555
Br2_3 Br6_1 3.793257 1_555
Br2_3 Br3_5 3.852592 1_555
Br2_4 Cu6_6 3.615480 1_545
Br2_4 Br6_6 3.793257 1_545
Br2_4 Br2_6 3.820111 1_545
Br2_4 Br2_6 3.820111 1_555
Br2_4 Br3_2 3.852592 1_645
Br2_5 Cu6_7 3.615480 1_545
Br2_5 Br6_7 3.793257 1_545
Br2_5 Br2_7 3.820111 1_545
Br2_5 Br2_7 3.820111 1_555
Br2_5 Br3_3 3.852592 1_645
Br2_6 Cu6_4 3.615480 1_555
Br2_6 Br6_4 3.793257 1_555
Br2_6 Br3_0 3.852592 1_655
Br2_7 Cu6_5 3.615480 1_555
Br2_7 Br6_5 3.793257 1_555
Br2_7 Br3_1 3.852592 1_655
Br3_0 Cu7_2 3.615480 1_555
Br3_0 Br7_2 3.793257 1_555
Br3_0 Br3_2 3.820111 1_555
Br3_0 Br3_2 3.820111 1_545
Br3_1 Cu7_3 3.615480 1_555
Br3_1 Br7_3 3.793257 1_555
Br3_1 Br3_3 3.820111 1_545
Br3_1 Br3_3 3.820111 1_555
Br3_2 Cu7_0 3.615480 1_565
Br3_2 Br7_0 3.793257 1_565
Br3_3 Cu7_1 3.615480 1_565
Br3_3 Br7_1 3.793257 1_565
Br3_4 Cu7_6 3.615480 1_555
Br3_4 Br7_6 3.793257 1_555
Br3_4 Br3_6 3.820111 1_555
Br3_4 Br3_6 3.820111 1_545
Br3_5 Cu7_7 3.615480 1_555
Br3_5 Br7_7 3.793257 1_555
Br3_5 Br3_7 3.820111 1_545
Br3_5 Br3_7 3.820111 1_555
Br3_6 Cu7_4 3.615480 1_565
Br3_6 Br7_4 3.793257 1_565
Br3_7 Cu7_5 3.615480 1_565
Br3_7 Br7_5 3.793257 1_565
Br4_0 Cu0_0 2.663570 1_555
Br4_0 Cu0_2 2.682533 1_545
Br4_0 Cu4_0 2.814103 1_555
Br4_1 Cu0_1 2.663570 1_555
Br4_1 Cu0_3 2.682533 1_545
Br4_1 Cu4_1 2.814103 1_555
Br4_2 Cu0_2 2.663570 1_555
Br4_2 Cu0_0 2.682533 1_555
Br4_2 Cu4_2 2.814103 1_555
Br4_3 Cu0_3 2.663570 1_555
Br4_3 Cu0_1 2.682533 1_555
Br4_3 Cu4_3 2.814103 1_555
Br4_4 Cu0_4 2.663570 1_555
Br4_4 Cu0_6 2.682533 1_545
Br4_4 Cu4_4 2.814103 1_555
Br4_5 Cu0_5 2.663570 1_555
Br4_5 Cu0_7 2.682533 1_545
Br4_5 Cu4_5 2.814103 1_555
Br4_6 Cu0_6 2.663570 1_555
Br4_6 Cu0_4 2.682533 1_555
Br4_6 Cu4_6 2.814103 1_555
Br4_7 Cu0_7 2.663570 1_555
Br4_7 Cu0_5 2.682533 1_555
Br4_7 Cu4_7 2.814103 1_555
Br5_0 Cu1_0 2.663570 1_555
Br5_0 Cu1_2 2.682533 1_555
Br5_0 Cu5_0 2.814103 1_555
Br5_1 Cu1_1 2.663570 1_555
Br5_1 Cu1_3 2.682533 1_555
Br5_1 Cu5_1 2.814103 1_555
Br5_2 Cu1_2 2.663570 1_555
Br5_2 Cu1_0 2.682533 1_565
Br5_2 Cu5_2 2.814103 1_555
Br5_3 Cu1_3 2.663570 1_555
Br5_3 Cu1_1 2.682533 1_565
Br5_3 Cu5_3 2.814103 1_555
Br5_4 Cu1_4 2.663570 1_555
Br5_4 Cu1_6 2.682533 1_555
Br5_4 Cu5_4 2.814103 1_555
Br5_5 Cu1_5 2.663570 1_555
Br5_5 Cu1_7 2.682533 1_555
Br5_5 Cu5_5 2.814103 1_555
Br5_6 Cu1_6 2.663570 1_555
Br5_6 Cu1_4 2.682533 1_565
Br5_6 Cu5_6 2.814103 1_555
Br5_7 Cu1_7 2.663570 1_555
Br5_7 Cu1_5 2.682533 1_565
Br5_7 Cu5_7 2.814103 1_555
Br6_0 Cu2_0 2.663570 1_555
Br6_0 Cu2_2 2.682533 1_555
Br6_0 Cu6_1 2.814103 1_555
Br6_1 Cu2_1 2.663570 1_555
Br6_1 Cu2_3 2.682533 1_555
Br6_1 Cu6_0 2.814103 1_556
Br6_2 Cu2_2 2.663570 1_555
Br6_2 Cu2_0 2.682533 1_565
Br6_2 Cu6_3 2.814103 1_555
Br6_3 Cu2_3 2.663570 1_555
Br6_3 Cu2_1 2.682533 1_565
Br6_3 Cu6_2 2.814103 1_556
Br6_4 Cu2_4 2.663570 1_555
Br6_4 Cu2_6 2.682533 1_555
Br6_4 Cu6_5 2.814103 1_555
Br6_5 Cu2_5 2.663570 1_555
Br6_5 Cu2_7 2.682533 1_555
Br6_5 Cu6_4 2.814103 1_556
Br6_6 Cu2_6 2.663570 1_555
Br6_6 Cu2_4 2.682533 1_565
Br6_6 Cu6_7 2.814103 1_555
Br6_7 Cu2_7 2.663570 1_555
Br6_7 Cu2_5 2.682533 1_565
Br6_7 Cu6_6 2.814103 1_556
Br7_0 Cu3_0 2.663570 1_555
Br7_0 Cu3_2 2.682533 1_545
Br7_0 Cu7_1 2.814103 1_554
Br7_1 Cu3_1 2.663570 1_555
Br7_1 Cu3_3 2.682533 1_545
Br7_1 Cu7_0 2.814103 1_555
Br7_2 Cu3_2 2.663570 1_555
Br7_2 Cu3_0 2.682533 1_555
Br7_2 Cu7_3 2.814103 1_554
Br7_3 Cu3_3 2.663570 1_555
Br7_3 Cu3_1 2.682533 1_555
Br7_3 Cu7_2 2.814103 1_555
Br7_4 Cu3_4 2.663570 1_555
Br7_4 Cu3_6 2.682533 1_545
Br7_4 Cu7_5 2.814103 1_554
Br7_5 Cu3_5 2.663570 1_555
Br7_5 Cu3_7 2.682533 1_545
Br7_5 Cu7_4 2.814103 1_555
Br7_6 Cu3_6 2.663570 1_555
Br7_6 Cu3_4 2.682533 1_555
Br7_6 Cu7_7 2.814103 1_554
Br7_7 Cu3_7 2.663570 1_555
Br7_7 Cu3_5 2.682533 1_555
Br7_7 Cu7_6 2.814103 1_555
