# generated using pymatgen
data_Ni8Bi8SI2
_symmetry_space_group_name_H-M   'P 1'
_cell_length_a   8.36567400
_cell_length_b   19.94291200
_cell_length_c   43.42254400
_cell_angle_alpha   90.00000000
_cell_angle_beta   90.00000000
_cell_angle_gamma   90.00000000
_symmetry_Int_Tables_number   1
_chemical_formula_structural   Ni8Bi8SI2
_chemical_formula_sum   'Ni128 Bi128 S16 I32'
_cell_volume   7244.43922602
_cell_formula_units_Z   16
loop_
 _symmetry_equiv_pos_site_id
 _symmetry_equiv_pos_as_xyz
  1  'x, y, z'
loop_
 _atom_site_type_symbol
 _atom_site_label
 _atom_site_symmetry_multiplicity
 _atom_site_fract_x
 _atom_site_fract_y
 _atom_site_fract_z
 _atom_site_occupancy
  Ni  Ni0_0  1  0.37512750  0.15602900  0.48509600  1
  Ni  Ni0_1  1  0.37512750  0.15602900  0.98509600  1
  Ni  Ni0_2  1  0.37512750  0.65602900  0.48509600  1
  Ni  Ni0_3  1  0.37512750  0.65602900  0.98509600  1
  Ni  Ni0_4  1  0.87512750  0.15602900  0.48509600  1
  Ni  Ni0_5  1  0.87512750  0.15602900  0.98509600  1
  Ni  Ni0_6  1  0.87512750  0.65602900  0.48509600  1
  Ni  Ni0_7  1  0.87512750  0.65602900  0.98509600  1
  Ni  Ni1_0  1  0.37512750  0.34397100  0.01490400  1
  Ni  Ni1_1  1  0.37512750  0.34397100  0.51490400  1
  Ni  Ni1_2  1  0.37512750  0.84397100  0.01490400  1
  Ni  Ni1_3  1  0.37512750  0.84397100  0.51490400  1
  Ni  Ni1_4  1  0.87512750  0.34397100  0.01490400  1
  Ni  Ni1_5  1  0.87512750  0.34397100  0.51490400  1
  Ni  Ni1_6  1  0.87512750  0.84397100  0.01490400  1
  Ni  Ni1_7  1  0.87512750  0.84397100  0.51490400  1
  Ni  Ni2_0  1  0.12487250  0.40602900  0.26490400  1
  Ni  Ni2_1  1  0.12487250  0.40602900  0.76490400  1
  Ni  Ni2_2  1  0.12487250  0.90602900  0.26490400  1
  Ni  Ni2_3  1  0.12487250  0.90602900  0.76490400  1
  Ni  Ni2_4  1  0.62487250  0.40602900  0.26490400  1
  Ni  Ni2_5  1  0.62487250  0.40602900  0.76490400  1
  Ni  Ni2_6  1  0.62487250  0.90602900  0.26490400  1
  Ni  Ni2_7  1  0.62487250  0.90602900  0.76490400  1
  Ni  Ni3_0  1  0.12487250  0.09397100  0.23509600  1
  Ni  Ni3_1  1  0.12487250  0.09397100  0.73509600  1
  Ni  Ni3_2  1  0.12487250  0.59397100  0.23509600  1
  Ni  Ni3_3  1  0.12487250  0.59397100  0.73509600  1
  Ni  Ni3_4  1  0.62487250  0.09397100  0.23509600  1
  Ni  Ni3_5  1  0.62487250  0.09397100  0.73509600  1
  Ni  Ni3_6  1  0.62487250  0.59397100  0.23509600  1
  Ni  Ni3_7  1  0.62487250  0.59397100  0.73509600  1
  Ni  Ni4_0  1  0.12489550  0.29431050  0.04279700  1
  Ni  Ni4_1  1  0.12489550  0.29431050  0.54279700  1
  Ni  Ni4_2  1  0.12489550  0.79431050  0.04279700  1
  Ni  Ni4_3  1  0.12489550  0.79431050  0.54279700  1
  Ni  Ni4_4  1  0.62489550  0.29431050  0.04279700  1
  Ni  Ni4_5  1  0.62489550  0.29431050  0.54279700  1
  Ni  Ni4_6  1  0.62489550  0.79431050  0.04279700  1
  Ni  Ni4_7  1  0.62489550  0.79431050  0.54279700  1
  Ni  Ni5_0  1  0.12489550  0.20568950  0.45720300  1
  Ni  Ni5_1  1  0.12489550  0.20568950  0.95720300  1
  Ni  Ni5_2  1  0.12489550  0.70568950  0.45720300  1
  Ni  Ni5_3  1  0.12489550  0.70568950  0.95720300  1
  Ni  Ni5_4  1  0.62489550  0.20568950  0.45720300  1
  Ni  Ni5_5  1  0.62489550  0.20568950  0.95720300  1
  Ni  Ni5_6  1  0.62489550  0.70568950  0.45720300  1
  Ni  Ni5_7  1  0.62489550  0.70568950  0.95720300  1
  Ni  Ni6_0  1  0.37510450  0.04431050  0.20720300  1
  Ni  Ni6_1  1  0.37510450  0.04431050  0.70720300  1
  Ni  Ni6_2  1  0.37510450  0.54431050  0.20720300  1
  Ni  Ni6_3  1  0.37510450  0.54431050  0.70720300  1
  Ni  Ni6_4  1  0.87510450  0.04431050  0.20720300  1
  Ni  Ni6_5  1  0.87510450  0.04431050  0.70720300  1
  Ni  Ni6_6  1  0.87510450  0.54431050  0.20720300  1
  Ni  Ni6_7  1  0.87510450  0.54431050  0.70720300  1
  Ni  Ni7_0  1  0.37510450  0.45568950  0.29279700  1
  Ni  Ni7_1  1  0.37510450  0.45568950  0.79279700  1
  Ni  Ni7_2  1  0.37510450  0.95568950  0.29279700  1
  Ni  Ni7_3  1  0.37510450  0.95568950  0.79279700  1
  Ni  Ni7_4  1  0.87510450  0.45568950  0.29279700  1
  Ni  Ni7_5  1  0.87510450  0.45568950  0.79279700  1
  Ni  Ni7_6  1  0.87510450  0.95568950  0.29279700  1
  Ni  Ni7_7  1  0.87510450  0.95568950  0.79279700  1
  Ni  Ni8_0  1  0.12455200  0.16218600  0.02079450  1
  Ni  Ni8_1  1  0.12455200  0.16218600  0.52079450  1
  Ni  Ni8_2  1  0.12455200  0.66218600  0.02079450  1
  Ni  Ni8_3  1  0.12455200  0.66218600  0.52079450  1
  Ni  Ni8_4  1  0.62455200  0.16218600  0.02079450  1
  Ni  Ni8_5  1  0.62455200  0.16218600  0.52079450  1
  Ni  Ni8_6  1  0.62455200  0.66218600  0.02079450  1
  Ni  Ni8_7  1  0.62455200  0.66218600  0.52079450  1
  Ni  Ni9_0  1  0.12455200  0.33781400  0.47920550  1
  Ni  Ni9_1  1  0.12455200  0.33781400  0.97920550  1
  Ni  Ni9_2  1  0.12455200  0.83781400  0.47920550  1
  Ni  Ni9_3  1  0.12455200  0.83781400  0.97920550  1
  Ni  Ni9_4  1  0.62455200  0.33781400  0.47920550  1
  Ni  Ni9_5  1  0.62455200  0.33781400  0.97920550  1
  Ni  Ni9_6  1  0.62455200  0.83781400  0.47920550  1
  Ni  Ni9_7  1  0.62455200  0.83781400  0.97920550  1
  Ni  Ni10_0  1  0.37544800  0.41218600  0.22920550  1
  Ni  Ni10_1  1  0.37544800  0.41218600  0.72920550  1
  Ni  Ni10_2  1  0.37544800  0.91218600  0.22920550  1
  Ni  Ni10_3  1  0.37544800  0.91218600  0.72920550  1
  Ni  Ni10_4  1  0.87544800  0.41218600  0.22920550  1
  Ni  Ni10_5  1  0.87544800  0.41218600  0.72920550  1
  Ni  Ni10_6  1  0.87544800  0.91218600  0.22920550  1
  Ni  Ni10_7  1  0.87544800  0.91218600  0.72920550  1
  Ni  Ni11_0  1  0.37544800  0.08781400  0.27079450  1
  Ni  Ni11_1  1  0.37544800  0.08781400  0.77079450  1
  Ni  Ni11_2  1  0.37544800  0.58781400  0.27079450  1
  Ni  Ni11_3  1  0.37544800  0.58781400  0.77079450  1
  Ni  Ni11_4  1  0.87544800  0.08781400  0.27079450  1
  Ni  Ni11_5  1  0.87544800  0.08781400  0.77079450  1
  Ni  Ni11_6  1  0.87544800  0.58781400  0.27079450  1
  Ni  Ni11_7  1  0.87544800  0.58781400  0.77079450  1
  Ni  Ni12_0  1  0.37505150  0.21943100  0.04434250  1
  Ni  Ni12_1  1  0.37505150  0.21943100  0.54434250  1
  Ni  Ni12_2  1  0.37505150  0.71943100  0.04434250  1
  Ni  Ni12_3  1  0.37505150  0.71943100  0.54434250  1
  Ni  Ni12_4  1  0.87505150  0.21943100  0.04434250  1
  Ni  Ni12_5  1  0.87505150  0.21943100  0.54434250  1
  Ni  Ni12_6  1  0.87505150  0.71943100  0.04434250  1
  Ni  Ni12_7  1  0.87505150  0.71943100  0.54434250  1
  Ni  Ni13_0  1  0.37505150  0.28056900  0.45565750  1
  Ni  Ni13_1  1  0.37505150  0.28056900  0.95565750  1
  Ni  Ni13_2  1  0.37505150  0.78056900  0.45565750  1
  Ni  Ni13_3  1  0.37505150  0.78056900  0.95565750  1
  Ni  Ni13_4  1  0.87505150  0.28056900  0.45565750  1
  Ni  Ni13_5  1  0.87505150  0.28056900  0.95565750  1
  Ni  Ni13_6  1  0.87505150  0.78056900  0.45565750  1
  Ni  Ni13_7  1  0.87505150  0.78056900  0.95565750  1
  Ni  Ni14_0  1  0.12494850  0.46943100  0.20565750  1
  Ni  Ni14_1  1  0.12494850  0.46943100  0.70565750  1
  Ni  Ni14_2  1  0.12494850  0.96943100  0.20565750  1
  Ni  Ni14_3  1  0.12494850  0.96943100  0.70565750  1
  Ni  Ni14_4  1  0.62494850  0.46943100  0.20565750  1
  Ni  Ni14_5  1  0.62494850  0.46943100  0.70565750  1
  Ni  Ni14_6  1  0.62494850  0.96943100  0.20565750  1
  Ni  Ni14_7  1  0.62494850  0.96943100  0.70565750  1
  Ni  Ni15_0  1  0.12494850  0.03056900  0.29434250  1
  Ni  Ni15_1  1  0.12494850  0.03056900  0.79434250  1
  Ni  Ni15_2  1  0.12494850  0.53056900  0.29434250  1
  Ni  Ni15_3  1  0.12494850  0.53056900  0.79434250  1
  Ni  Ni15_4  1  0.62494850  0.03056900  0.29434250  1
  Ni  Ni15_5  1  0.62494850  0.03056900  0.79434250  1
  Ni  Ni15_6  1  0.62494850  0.53056900  0.29434250  1
  Ni  Ni15_7  1  0.62494850  0.53056900  0.79434250  1
  Bi  Bi0_0  1  0.12484250  0.18971100  0.08295950  1
  Bi  Bi0_1  1  0.12484250  0.18971100  0.58295950  1
  Bi  Bi0_2  1  0.12484250  0.68971100  0.08295950  1
  Bi  Bi0_3  1  0.12484250  0.68971100  0.58295950  1
  Bi  Bi0_4  1  0.62484250  0.18971100  0.08295950  1
  Bi  Bi0_5  1  0.62484250  0.18971100  0.58295950  1
  Bi  Bi0_6  1  0.62484250  0.68971100  0.08295950  1
  Bi  Bi0_7  1  0.62484250  0.68971100  0.58295950  1
  Bi  Bi1_0  1  0.12484250  0.31028900  0.41704050  1
  Bi  Bi1_1  1  0.12484250  0.31028900  0.91704050  1
  Bi  Bi1_2  1  0.12484250  0.81028900  0.41704050  1
  Bi  Bi1_3  1  0.12484250  0.81028900  0.91704050  1
  Bi  Bi1_4  1  0.62484250  0.31028900  0.41704050  1
  Bi  Bi1_5  1  0.62484250  0.31028900  0.91704050  1
  Bi  Bi1_6  1  0.62484250  0.81028900  0.41704050  1
  Bi  Bi1_7  1  0.62484250  0.81028900  0.91704050  1
  Bi  Bi2_0  1  0.37515750  0.43971100  0.16704050  1
  Bi  Bi2_1  1  0.37515750  0.43971100  0.66704050  1
  Bi  Bi2_2  1  0.37515750  0.93971100  0.16704050  1
  Bi  Bi2_3  1  0.37515750  0.93971100  0.66704050  1
  Bi  Bi2_4  1  0.87515750  0.43971100  0.16704050  1
  Bi  Bi2_5  1  0.87515750  0.43971100  0.66704050  1
  Bi  Bi2_6  1  0.87515750  0.93971100  0.16704050  1
  Bi  Bi2_7  1  0.87515750  0.93971100  0.66704050  1
  Bi  Bi3_0  1  0.37515750  0.06028900  0.33295950  1
  Bi  Bi3_1  1  0.37515750  0.06028900  0.83295950  1
  Bi  Bi3_2  1  0.37515750  0.56028900  0.33295950  1
  Bi  Bi3_3  1  0.37515750  0.56028900  0.83295950  1
  Bi  Bi3_4  1  0.87515750  0.06028900  0.33295950  1
  Bi  Bi3_5  1  0.87515750  0.06028900  0.83295950  1
  Bi  Bi3_6  1  0.87515750  0.56028900  0.33295950  1
  Bi  Bi3_7  1  0.87515750  0.56028900  0.83295950  1
  Bi  Bi4_0  1  0.37515650  0.08343050  0.03954150  1
  Bi  Bi4_1  1  0.37515650  0.08343050  0.53954150  1
  Bi  Bi4_2  1  0.37515650  0.58343050  0.03954150  1
  Bi  Bi4_3  1  0.37515650  0.58343050  0.53954150  1
  Bi  Bi4_4  1  0.87515650  0.08343050  0.03954150  1
  Bi  Bi4_5  1  0.87515650  0.08343050  0.53954150  1
  Bi  Bi4_6  1  0.87515650  0.58343050  0.03954150  1
  Bi  Bi4_7  1  0.87515650  0.58343050  0.53954150  1
  Bi  Bi5_0  1  0.37515650  0.41656950  0.46045850  1
  Bi  Bi5_1  1  0.37515650  0.41656950  0.96045850  1
  Bi  Bi5_2  1  0.37515650  0.91656950  0.46045850  1
  Bi  Bi5_3  1  0.37515650  0.91656950  0.96045850  1
  Bi  Bi5_4  1  0.87515650  0.41656950  0.46045850  1
  Bi  Bi5_5  1  0.87515650  0.41656950  0.96045850  1
  Bi  Bi5_6  1  0.87515650  0.91656950  0.46045850  1
  Bi  Bi5_7  1  0.87515650  0.91656950  0.96045850  1
  Bi  Bi6_0  1  0.12484350  0.33343050  0.21045850  1
  Bi  Bi6_1  1  0.12484350  0.33343050  0.71045850  1
  Bi  Bi6_2  1  0.12484350  0.83343050  0.21045850  1
  Bi  Bi6_3  1  0.12484350  0.83343050  0.71045850  1
  Bi  Bi6_4  1  0.62484350  0.33343050  0.21045850  1
  Bi  Bi6_5  1  0.62484350  0.33343050  0.71045850  1
  Bi  Bi6_6  1  0.62484350  0.83343050  0.21045850  1
  Bi  Bi6_7  1  0.62484350  0.83343050  0.71045850  1
  Bi  Bi7_0  1  0.12484350  0.16656950  0.28954150  1
  Bi  Bi7_1  1  0.12484350  0.16656950  0.78954150  1
  Bi  Bi7_2  1  0.12484350  0.66656950  0.28954150  1
  Bi  Bi7_3  1  0.12484350  0.66656950  0.78954150  1
  Bi  Bi7_4  1  0.62484350  0.16656950  0.28954150  1
  Bi  Bi7_5  1  0.62484350  0.16656950  0.78954150  1
  Bi  Bi7_6  1  0.62484350  0.66656950  0.28954150  1
  Bi  Bi7_7  1  0.62484350  0.66656950  0.78954150  1
  Bi  Bi8_0  1  0.12485250  0.07221150  0.47354950  1
  Bi  Bi8_1  1  0.12485250  0.07221150  0.97354950  1
  Bi  Bi8_2  1  0.12485250  0.57221150  0.47354950  1
  Bi  Bi8_3  1  0.12485250  0.57221150  0.97354950  1
  Bi  Bi8_4  1  0.62485250  0.07221150  0.47354950  1
  Bi  Bi8_5  1  0.62485250  0.07221150  0.97354950  1
  Bi  Bi8_6  1  0.62485250  0.57221150  0.47354950  1
  Bi  Bi8_7  1  0.62485250  0.57221150  0.97354950  1
  Bi  Bi9_0  1  0.12485250  0.42778850  0.02645050  1
  Bi  Bi9_1  1  0.12485250  0.42778850  0.52645050  1
  Bi  Bi9_2  1  0.12485250  0.92778850  0.02645050  1
  Bi  Bi9_3  1  0.12485250  0.92778850  0.52645050  1
  Bi  Bi9_4  1  0.62485250  0.42778850  0.02645050  1
  Bi  Bi9_5  1  0.62485250  0.42778850  0.52645050  1
  Bi  Bi9_6  1  0.62485250  0.92778850  0.02645050  1
  Bi  Bi9_7  1  0.62485250  0.92778850  0.52645050  1
  Bi  Bi10_0  1  0.37514750  0.32221150  0.27645050  1
  Bi  Bi10_1  1  0.37514750  0.32221150  0.77645050  1
  Bi  Bi10_2  1  0.37514750  0.82221150  0.27645050  1
  Bi  Bi10_3  1  0.37514750  0.82221150  0.77645050  1
  Bi  Bi10_4  1  0.87514750  0.32221150  0.27645050  1
  Bi  Bi10_5  1  0.87514750  0.32221150  0.77645050  1
  Bi  Bi10_6  1  0.87514750  0.82221150  0.27645050  1
  Bi  Bi10_7  1  0.87514750  0.82221150  0.77645050  1
  Bi  Bi11_0  1  0.37514750  0.17778850  0.22354950  1
  Bi  Bi11_1  1  0.37514750  0.17778850  0.72354950  1
  Bi  Bi11_2  1  0.37514750  0.67778850  0.22354950  1
  Bi  Bi11_3  1  0.37514750  0.67778850  0.72354950  1
  Bi  Bi11_4  1  0.87514750  0.17778850  0.22354950  1
  Bi  Bi11_5  1  0.87514750  0.17778850  0.72354950  1
  Bi  Bi11_6  1  0.87514750  0.67778850  0.22354950  1
  Bi  Bi11_7  1  0.87514750  0.67778850  0.72354950  1
  Bi  Bi12_0  1  0.37515000  0.33621500  0.07815850  1
  Bi  Bi12_1  1  0.37515000  0.33621500  0.57815850  1
  Bi  Bi12_2  1  0.37515000  0.83621500  0.07815850  1
  Bi  Bi12_3  1  0.37515000  0.83621500  0.57815850  1
  Bi  Bi12_4  1  0.87515000  0.33621500  0.07815850  1
  Bi  Bi12_5  1  0.87515000  0.33621500  0.57815850  1
  Bi  Bi12_6  1  0.87515000  0.83621500  0.07815850  1
  Bi  Bi12_7  1  0.87515000  0.83621500  0.57815850  1
  Bi  Bi13_0  1  0.37515000  0.16378500  0.42184150  1
  Bi  Bi13_1  1  0.37515000  0.16378500  0.92184150  1
  Bi  Bi13_2  1  0.37515000  0.66378500  0.42184150  1
  Bi  Bi13_3  1  0.37515000  0.66378500  0.92184150  1
  Bi  Bi13_4  1  0.87515000  0.16378500  0.42184150  1
  Bi  Bi13_5  1  0.87515000  0.16378500  0.92184150  1
  Bi  Bi13_6  1  0.87515000  0.66378500  0.42184150  1
  Bi  Bi13_7  1  0.87515000  0.66378500  0.92184150  1
  Bi  Bi14_0  1  0.12485000  0.08621500  0.17184150  1
  Bi  Bi14_1  1  0.12485000  0.08621500  0.67184150  1
  Bi  Bi14_2  1  0.12485000  0.58621500  0.17184150  1
  Bi  Bi14_3  1  0.12485000  0.58621500  0.67184150  1
  Bi  Bi14_4  1  0.62485000  0.08621500  0.17184150  1
  Bi  Bi14_5  1  0.62485000  0.08621500  0.67184150  1
  Bi  Bi14_6  1  0.62485000  0.58621500  0.17184150  1
  Bi  Bi14_7  1  0.62485000  0.58621500  0.67184150  1
  Bi  Bi15_0  1  0.12485000  0.41378500  0.32815850  1
  Bi  Bi15_1  1  0.12485000  0.41378500  0.82815850  1
  Bi  Bi15_2  1  0.12485000  0.91378500  0.32815850  1
  Bi  Bi15_3  1  0.12485000  0.91378500  0.82815850  1
  Bi  Bi15_4  1  0.62485000  0.41378500  0.32815850  1
  Bi  Bi15_5  1  0.62485000  0.41378500  0.82815850  1
  Bi  Bi15_6  1  0.62485000  0.91378500  0.32815850  1
  Bi  Bi15_7  1  0.62485000  0.91378500  0.82815850  1
  S  S0_0  1  0.24771950  0.25000000  0.00000000  1
  S  S0_1  1  0.24771950  0.25000000  0.50000000  1
  S  S0_2  1  0.24771950  0.75000000  0.00000000  1
  S  S0_3  1  0.24771950  0.75000000  0.50000000  1
  S  S0_4  1  0.74771950  0.25000000  0.00000000  1
  S  S0_5  1  0.74771950  0.25000000  0.50000000  1
  S  S0_6  1  0.74771950  0.75000000  0.00000000  1
  S  S0_7  1  0.74771950  0.75000000  0.50000000  1
  S  S1_0  1  0.25228050  0.00000000  0.25000000  1
  S  S1_1  1  0.25228050  0.00000000  0.75000000  1
  S  S1_2  1  0.25228050  0.50000000  0.25000000  1
  S  S1_3  1  0.25228050  0.50000000  0.75000000  1
  S  S1_4  1  0.75228050  0.00000000  0.25000000  1
  S  S1_5  1  0.75228050  0.00000000  0.75000000  1
  S  S1_6  1  0.75228050  0.50000000  0.25000000  1
  S  S1_7  1  0.75228050  0.50000000  0.75000000  1
  I  I0_0  1  0.12491400  0.00251150  0.39803650  1
  I  I0_1  1  0.12491400  0.00251150  0.89803650  1
  I  I0_2  1  0.12491400  0.50251150  0.39803650  1
  I  I0_3  1  0.12491400  0.50251150  0.89803650  1
  I  I0_4  1  0.62491400  0.00251150  0.39803650  1
  I  I0_5  1  0.62491400  0.00251150  0.89803650  1
  I  I0_6  1  0.62491400  0.50251150  0.39803650  1
  I  I0_7  1  0.62491400  0.50251150  0.89803650  1
  I  I1_0  1  0.12491400  0.49748850  0.10196350  1
  I  I1_1  1  0.12491400  0.49748850  0.60196350  1
  I  I1_2  1  0.12491400  0.99748850  0.10196350  1
  I  I1_3  1  0.12491400  0.99748850  0.60196350  1
  I  I1_4  1  0.62491400  0.49748850  0.10196350  1
  I  I1_5  1  0.62491400  0.49748850  0.60196350  1
  I  I1_6  1  0.62491400  0.99748850  0.10196350  1
  I  I1_7  1  0.62491400  0.99748850  0.60196350  1
  I  I2_0  1  0.37508600  0.25251150  0.35196350  1
  I  I2_1  1  0.37508600  0.25251150  0.85196350  1
  I  I2_2  1  0.37508600  0.75251150  0.35196350  1
  I  I2_3  1  0.37508600  0.75251150  0.85196350  1
  I  I2_4  1  0.87508600  0.25251150  0.35196350  1
  I  I2_5  1  0.87508600  0.25251150  0.85196350  1
  I  I2_6  1  0.87508600  0.75251150  0.35196350  1
  I  I2_7  1  0.87508600  0.75251150  0.85196350  1
  I  I3_0  1  0.37508600  0.24748850  0.14803650  1
  I  I3_1  1  0.37508600  0.24748850  0.64803650  1
  I  I3_2  1  0.37508600  0.74748850  0.14803650  1
  I  I3_3  1  0.37508600  0.74748850  0.64803650  1
  I  I3_4  1  0.87508600  0.24748850  0.14803650  1
  I  I3_5  1  0.87508600  0.24748850  0.64803650  1
  I  I3_6  1  0.87508600  0.74748850  0.14803650  1
  I  I3_7  1  0.87508600  0.74748850  0.64803650  1
loop_
_geom_bond_atom_site_label_1
_geom_bond_atom_site_label_2
_geom_bond_distance
_geom_bond_site_symmetry_2
Ni0_0 S0_1 2.250990 1_555
Ni0_0 Ni8_5 2.602281 1_555
Ni0_0 Ni8_1 2.610008 1_555
Ni0_0 Ni5_4 2.610312 1_555
Ni0_0 Ni5_0 2.613420 1_555
Ni0_0 Ni13_0 2.793341 1_555
Ni0_0 Ni12_1 2.866567 1_555
Ni0_1 S0_0 2.250990 1_556
Ni0_1 Ni8_4 2.602281 1_556
Ni0_1 Ni8_0 2.610008 1_556
Ni0_1 Ni5_5 2.610312 1_555
Ni0_1 Ni5_1 2.613420 1_555
Ni0_1 Ni13_1 2.793341 1_555
Ni0_1 Ni12_0 2.866567 1_556
Ni0_2 S0_3 2.250990 1_555
Ni0_2 Ni8_7 2.602281 1_555
Ni0_2 Ni8_3 2.610008 1_555
Ni0_2 Ni5_6 2.610312 1_555
Ni0_2 Ni5_2 2.613420 1_555
Ni0_2 Ni13_2 2.793341 1_555
Ni0_2 Ni12_3 2.866567 1_555
Ni0_3 S0_2 2.250990 1_556
Ni0_3 Ni8_6 2.602281 1_556
Ni0_3 Ni8_2 2.610008 1_556
Ni0_3 Ni5_7 2.610312 1_555
Ni0_3 Ni5_3 2.613420 1_555
Ni0_3 Ni13_3 2.793341 1_555
Ni0_3 Ni12_2 2.866567 1_556
Ni0_4 S0_5 2.250990 1_555
Ni0_4 Ni8_1 2.602281 1_655
Ni0_4 Ni8_5 2.610008 1_555
Ni0_4 Ni5_0 2.610312 1_655
Ni0_4 Ni5_4 2.613420 1_555
Ni0_4 Ni13_4 2.793341 1_555
Ni0_4 Ni12_5 2.866567 1_555
Ni0_5 S0_4 2.250990 1_556
Ni0_5 Ni8_0 2.602281 1_656
Ni0_5 Ni8_4 2.610008 1_556
Ni0_5 Ni5_1 2.610312 1_655
Ni0_5 Ni5_5 2.613420 1_555
Ni0_5 Ni13_5 2.793341 1_555
Ni0_5 Ni12_4 2.866567 1_556
Ni0_6 S0_7 2.250990 1_555
Ni0_6 Ni8_3 2.602281 1_655
Ni0_6 Ni8_7 2.610008 1_555
Ni0_6 Ni5_2 2.610312 1_655
Ni0_6 Ni5_6 2.613420 1_555
Ni0_6 Ni13_6 2.793341 1_555
Ni0_6 Ni12_7 2.866567 1_555
Ni0_7 S0_6 2.250990 1_556
Ni0_7 Ni8_2 2.602281 1_656
Ni0_7 Ni8_6 2.610008 1_556
Ni0_7 Ni5_3 2.610312 1_655
Ni0_7 Ni5_7 2.613420 1_555
Ni0_7 Ni13_7 2.793341 1_555
Ni0_7 Ni12_6 2.866567 1_556
Ni1_0 S0_0 2.250990 1_555
Ni1_0 Ni9_5 2.602281 1_554
Ni1_0 Ni9_1 2.610008 1_554
Ni1_0 Ni4_4 2.610312 1_555
Ni1_0 Ni4_0 2.613420 1_555
Ni1_1 S0_1 2.250990 1_555
Ni1_1 Ni9_4 2.602281 1_555
Ni1_1 Ni9_0 2.610008 1_555
Ni1_1 Ni4_5 2.610312 1_555
Ni1_1 Ni4_1 2.613420 1_555
Ni1_2 S0_2 2.250990 1_555
Ni1_2 Ni9_7 2.602281 1_554
Ni1_2 Ni9_3 2.610008 1_554
Ni1_2 Ni4_6 2.610312 1_555
Ni1_2 Ni4_2 2.613420 1_555
Ni1_3 S0_3 2.250990 1_555
Ni1_3 Ni9_6 2.602281 1_555
Ni1_3 Ni9_2 2.610008 1_555
Ni1_3 Ni4_7 2.610312 1_555
Ni1_3 Ni4_3 2.613420 1_555
Ni1_4 S0_4 2.250990 1_555
Ni1_4 Ni9_1 2.602281 1_654
Ni1_4 Ni9_5 2.610008 1_554
Ni1_4 Ni4_0 2.610312 1_655
Ni1_4 Ni4_4 2.613420 1_555
Ni1_5 S0_5 2.250990 1_555
Ni1_5 Ni9_0 2.602281 1_655
Ni1_5 Ni9_4 2.610008 1_555
Ni1_5 Ni4_1 2.610312 1_655
Ni1_5 Ni4_5 2.613420 1_555
Ni1_6 S0_6 2.250990 1_555
Ni1_6 Ni9_3 2.602281 1_654
Ni1_6 Ni9_7 2.610008 1_554
Ni1_6 Ni4_2 2.610312 1_655
Ni1_6 Ni4_6 2.613420 1_555
Ni1_7 S0_7 2.250990 1_555
Ni1_7 Ni9_2 2.602281 1_655
Ni1_7 Ni9_6 2.610008 1_555
Ni1_7 Ni4_3 2.610312 1_655
Ni1_7 Ni4_7 2.613420 1_555
Ni2_0 S1_2 2.250990 1_555
Ni2_0 Ni7_4 2.610312 1_455
Ni2_0 Ni7_0 2.613420 1_555
Ni2_1 S1_3 2.250990 1_555
Ni2_1 Ni7_5 2.610312 1_455
Ni2_1 Ni7_1 2.613420 1_555
Ni2_2 S1_0 2.250990 1_565
Ni2_2 Ni7_6 2.610312 1_455
Ni2_2 Ni7_2 2.613420 1_555
Ni2_3 S1_1 2.250990 1_565
Ni2_3 Ni7_7 2.610312 1_455
Ni2_3 Ni7_3 2.613420 1_555
Ni2_4 S1_6 2.250990 1_555
Ni2_4 Ni7_0 2.610312 1_555
Ni2_4 Ni7_4 2.613420 1_555
Ni2_5 S1_7 2.250990 1_555
Ni2_5 Ni7_1 2.610312 1_555
Ni2_5 Ni7_5 2.613420 1_555
Ni2_6 S1_4 2.250990 1_565
Ni2_6 Ni7_2 2.610312 1_555
Ni2_6 Ni7_6 2.613420 1_555
Ni2_7 S1_5 2.250990 1_565
Ni2_7 Ni7_3 2.610312 1_555
Ni2_7 Ni7_7 2.613420 1_555
Ni3_0 S1_0 2.250990 1_555
Ni3_0 Ni6_4 2.610312 1_455
Ni3_0 Ni6_0 2.613420 1_555
Ni3_1 S1_1 2.250990 1_555
Ni3_1 Ni6_5 2.610312 1_455
Ni3_1 Ni6_1 2.613420 1_555
Ni3_2 S1_2 2.250990 1_555
Ni3_2 Ni6_6 2.610312 1_455
Ni3_2 Ni6_2 2.613420 1_555
Ni3_3 S1_3 2.250990 1_555
Ni3_3 Ni6_7 2.610312 1_455
Ni3_3 Ni6_3 2.613420 1_555
Ni3_4 S1_4 2.250990 1_555
Ni3_4 Ni6_0 2.610312 1_555
Ni3_4 Ni6_4 2.613420 1_555
Ni3_5 S1_5 2.250990 1_555
Ni3_5 Ni6_1 2.610312 1_555
Ni3_5 Ni6_5 2.613420 1_555
Ni3_6 S1_6 2.250990 1_555
Ni3_6 Ni6_2 2.610312 1_555
Ni3_6 Ni6_6 2.613420 1_555
Ni3_7 S1_7 2.250990 1_555
Ni3_7 Ni6_3 2.610312 1_555
Ni3_7 Ni6_7 2.613420 1_555
Ni4_0 S0_0 2.300031 1_555
Ni4_0 Ni8_0 2.802812 1_555
Ni4_0 Ni9_1 2.894394 1_554
Ni4_1 S0_1 2.300031 1_555
Ni4_1 Ni8_1 2.802812 1_555
Ni4_1 Ni9_0 2.894394 1_555
Ni4_2 S0_2 2.300031 1_555
Ni4_2 Ni8_2 2.802812 1_555
Ni4_2 Ni9_3 2.894394 1_554
Ni4_3 S0_3 2.300031 1_555
Ni4_3 Ni8_3 2.802812 1_555
Ni4_3 Ni9_2 2.894394 1_555
Ni4_4 S0_4 2.300031 1_555
Ni4_4 Ni8_4 2.802812 1_555
Ni4_4 Ni9_5 2.894394 1_554
Ni4_5 S0_5 2.300031 1_555
Ni4_5 Ni8_5 2.802812 1_555
Ni4_5 Ni9_4 2.894394 1_555
Ni4_6 S0_6 2.300031 1_555
Ni4_6 Ni8_6 2.802812 1_555
Ni4_6 Ni9_7 2.894394 1_554
Ni4_7 S0_7 2.300031 1_555
Ni4_7 Ni8_7 2.802812 1_555
Ni4_7 Ni9_6 2.894394 1_555
Ni5_0 S0_1 2.300031 1_555
Ni5_0 Ni9_0 2.802812 1_555
Ni5_0 Ni8_1 2.894394 1_555
Ni5_1 S0_0 2.300031 1_556
Ni5_1 Ni9_1 2.802812 1_555
Ni5_1 Ni8_0 2.894394 1_556
Ni5_2 S0_3 2.300031 1_555
Ni5_2 Ni9_2 2.802812 1_555
Ni5_2 Ni8_3 2.894394 1_555
Ni5_3 S0_2 2.300031 1_556
Ni5_3 Ni9_3 2.802812 1_555
Ni5_3 Ni8_2 2.894394 1_556
Ni5_4 S0_5 2.300031 1_555
Ni5_4 Ni9_4 2.802812 1_555
Ni5_4 Ni8_5 2.894394 1_555
Ni5_5 S0_4 2.300031 1_556
Ni5_5 Ni9_5 2.802812 1_555
Ni5_5 Ni8_4 2.894394 1_556
Ni5_6 S0_7 2.300031 1_555
Ni5_6 Ni9_6 2.802812 1_555
Ni5_6 Ni8_7 2.894394 1_555
Ni5_7 S0_6 2.300031 1_556
Ni5_7 Ni9_7 2.802812 1_555
Ni5_7 Ni8_6 2.894394 1_556
Ni6_0 S1_0 2.300031 1_555
Ni6_1 S1_1 2.300031 1_555
Ni6_2 S1_2 2.300031 1_555
Ni6_3 S1_3 2.300031 1_555
Ni6_4 S1_4 2.300031 1_555
Ni6_5 S1_5 2.300031 1_555
Ni6_6 S1_6 2.300031 1_555
Ni6_7 S1_7 2.300031 1_555
Ni7_0 S1_2 2.300031 1_555
Ni7_1 S1_3 2.300031 1_555
Ni7_2 S1_0 2.300031 1_565
Ni7_3 S1_1 2.300031 1_565
Ni7_4 S1_6 2.300031 1_555
Ni7_5 S1_7 2.300031 1_555
Ni7_6 S1_4 2.300031 1_565
Ni7_7 S1_5 2.300031 1_565
Ni8_0 S0_0 2.223496 1_555
Ni8_1 S0_1 2.223496 1_555
Ni8_2 S0_2 2.223496 1_555
Ni8_3 S0_3 2.223496 1_555
Ni8_4 S0_4 2.223496 1_555
Ni8_5 S0_5 2.223496 1_555
Ni8_6 S0_6 2.223496 1_555
Ni8_7 S0_7 2.223496 1_555
Ni9_0 S0_1 2.223496 1_555
Ni9_1 S0_0 2.223496 1_556
Ni9_2 S0_3 2.223496 1_555
Ni9_3 S0_2 2.223496 1_556
Ni9_4 S0_5 2.223496 1_555
Ni9_5 S0_4 2.223496 1_556
Ni9_6 S0_7 2.223496 1_555
Ni9_7 S0_6 2.223496 1_556
Ni10_0 S1_2 2.223496 1_555
Ni10_0 Ni14_4 2.589484 1_555
Ni10_0 Ni14_0 2.596225 1_555
Ni10_0 Ni2_4 2.602281 1_555
Ni10_0 Ni2_0 2.610008 1_555
Ni10_0 Ni6_2 2.802812 1_555
Ni10_0 Ni7_0 2.894394 1_555
Ni10_1 S1_3 2.223496 1_555
Ni10_1 Ni14_5 2.589484 1_555
Ni10_1 Ni14_1 2.596225 1_555
Ni10_1 Ni2_5 2.602281 1_555
Ni10_1 Ni2_1 2.610008 1_555
Ni10_1 Ni6_3 2.802812 1_555
Ni10_1 Ni7_1 2.894394 1_555
Ni10_2 S1_0 2.223496 1_565
Ni10_2 Ni14_6 2.589484 1_555
Ni10_2 Ni14_2 2.596225 1_555
Ni10_2 Ni2_6 2.602281 1_555
Ni10_2 Ni2_2 2.610008 1_555
Ni10_2 Ni6_0 2.802812 1_565
Ni10_2 Ni7_2 2.894394 1_555
Ni10_3 S1_1 2.223496 1_565
Ni10_3 Ni14_7 2.589484 1_555
Ni10_3 Ni14_3 2.596225 1_555
Ni10_3 Ni2_7 2.602281 1_555
Ni10_3 Ni2_3 2.610008 1_555
Ni10_3 Ni6_1 2.802812 1_565
Ni10_3 Ni7_3 2.894394 1_555
Ni10_4 S1_6 2.223496 1_555
Ni10_4 Ni14_0 2.589484 1_655
Ni10_4 Ni14_4 2.596225 1_555
Ni10_4 Ni2_0 2.602281 1_655
Ni10_4 Ni2_4 2.610008 1_555
Ni10_4 Ni6_6 2.802812 1_555
Ni10_4 Ni7_4 2.894394 1_555
Ni10_5 S1_7 2.223496 1_555
Ni10_5 Ni14_1 2.589484 1_655
Ni10_5 Ni14_5 2.596225 1_555
Ni10_5 Ni2_1 2.602281 1_655
Ni10_5 Ni2_5 2.610008 1_555
Ni10_5 Ni6_7 2.802812 1_555
Ni10_5 Ni7_5 2.894394 1_555
Ni10_6 S1_4 2.223496 1_565
Ni10_6 Ni14_2 2.589484 1_655
Ni10_6 Ni14_6 2.596225 1_555
Ni10_6 Ni2_2 2.602281 1_655
Ni10_6 Ni2_6 2.610008 1_555
Ni10_6 Ni6_4 2.802812 1_565
Ni10_6 Ni7_6 2.894394 1_555
Ni10_7 S1_5 2.223496 1_565
Ni10_7 Ni14_3 2.589484 1_655
Ni10_7 Ni14_7 2.596225 1_555
Ni10_7 Ni2_3 2.602281 1_655
Ni10_7 Ni2_7 2.610008 1_555
Ni10_7 Ni6_5 2.802812 1_565
Ni10_7 Ni7_7 2.894394 1_555
Ni11_0 S1_0 2.223496 1_555
Ni11_0 Ni15_4 2.589484 1_555
Ni11_0 Ni15_0 2.596225 1_555
Ni11_0 Ni3_4 2.602281 1_555
Ni11_0 Ni3_0 2.610008 1_555
Ni11_0 Ni7_2 2.802812 1_545
Ni11_0 Ni6_0 2.894394 1_555
Ni11_1 S1_1 2.223496 1_555
Ni11_1 Ni15_5 2.589484 1_555
Ni11_1 Ni15_1 2.596225 1_555
Ni11_1 Ni3_5 2.602281 1_555
Ni11_1 Ni3_1 2.610008 1_555
Ni11_1 Ni7_3 2.802812 1_545
Ni11_1 Ni6_1 2.894394 1_555
Ni11_2 S1_2 2.223496 1_555
Ni11_2 Ni15_6 2.589484 1_555
Ni11_2 Ni15_2 2.596225 1_555
Ni11_2 Ni3_6 2.602281 1_555
Ni11_2 Ni3_2 2.610008 1_555
Ni11_2 Ni7_0 2.802812 1_555
Ni11_2 Ni6_2 2.894394 1_555
Ni11_3 S1_3 2.223496 1_555
Ni11_3 Ni15_7 2.589484 1_555
Ni11_3 Ni15_3 2.596225 1_555
Ni11_3 Ni3_7 2.602281 1_555
Ni11_3 Ni3_3 2.610008 1_555
Ni11_3 Ni7_1 2.802812 1_555
Ni11_3 Ni6_3 2.894394 1_555
Ni11_4 S1_4 2.223496 1_555
Ni11_4 Ni15_0 2.589484 1_655
Ni11_4 Ni15_4 2.596225 1_555
Ni11_4 Ni3_0 2.602281 1_655
Ni11_4 Ni3_4 2.610008 1_555
Ni11_4 Ni7_6 2.802812 1_545
Ni11_4 Ni6_4 2.894394 1_555
Ni11_5 S1_5 2.223496 1_555
Ni11_5 Ni15_1 2.589484 1_655
Ni11_5 Ni15_5 2.596225 1_555
Ni11_5 Ni3_1 2.602281 1_655
Ni11_5 Ni3_5 2.610008 1_555
Ni11_5 Ni7_7 2.802812 1_545
Ni11_5 Ni6_5 2.894394 1_555
Ni11_6 S1_6 2.223496 1_555
Ni11_6 Ni15_2 2.589484 1_655
Ni11_6 Ni15_6 2.596225 1_555
Ni11_6 Ni3_2 2.602281 1_655
Ni11_6 Ni3_6 2.610008 1_555
Ni11_6 Ni7_4 2.802812 1_555
Ni11_6 Ni6_6 2.894394 1_555
Ni11_7 S1_7 2.223496 1_555
Ni11_7 Ni15_3 2.589484 1_655
Ni11_7 Ni15_7 2.596225 1_555
Ni11_7 Ni3_3 2.602281 1_655
Ni11_7 Ni3_7 2.610008 1_555
Ni11_7 Ni7_5 2.802812 1_555
Ni11_7 Ni6_7 2.894394 1_555
Ni12_0 S0_0 2.283365 1_555
Ni12_0 Ni4_4 2.569644 1_555
Ni12_0 Ni4_0 2.571767 1_555
Ni12_0 Ni8_4 2.589484 1_555
Ni12_0 Ni8_0 2.596225 1_555
Ni12_0 Ni1_0 2.793341 1_555
Ni12_1 S0_1 2.283365 1_555
Ni12_1 Ni4_5 2.569644 1_555
Ni12_1 Ni4_1 2.571767 1_555
Ni12_1 Ni8_5 2.589484 1_555
Ni12_1 Ni8_1 2.596225 1_555
Ni12_1 Ni1_1 2.793341 1_555
Ni12_2 S0_2 2.283365 1_555
Ni12_2 Ni4_6 2.569644 1_555
Ni12_2 Ni4_2 2.571767 1_555
Ni12_2 Ni8_6 2.589484 1_555
Ni12_2 Ni8_2 2.596225 1_555
Ni12_2 Ni1_2 2.793341 1_555
Ni12_3 S0_3 2.283365 1_555
Ni12_3 Ni4_7 2.569644 1_555
Ni12_3 Ni4_3 2.571767 1_555
Ni12_3 Ni8_7 2.589484 1_555
Ni12_3 Ni8_3 2.596225 1_555
Ni12_3 Ni1_3 2.793341 1_555
Ni12_4 S0_4 2.283365 1_555
Ni12_4 Ni4_0 2.569644 1_655
Ni12_4 Ni4_4 2.571767 1_555
Ni12_4 Ni8_0 2.589484 1_655
Ni12_4 Ni8_4 2.596225 1_555
Ni12_4 Ni1_4 2.793341 1_555
Ni12_5 S0_5 2.283365 1_555
Ni12_5 Ni4_1 2.569644 1_655
Ni12_5 Ni4_5 2.571767 1_555
Ni12_5 Ni8_1 2.589484 1_655
Ni12_5 Ni8_5 2.596225 1_555
Ni12_5 Ni1_5 2.793341 1_555
Ni12_6 S0_6 2.283365 1_555
Ni12_6 Ni4_2 2.569644 1_655
Ni12_6 Ni4_6 2.571767 1_555
Ni12_6 Ni8_2 2.589484 1_655
Ni12_6 Ni8_6 2.596225 1_555
Ni12_6 Ni1_6 2.793341 1_555
Ni12_7 S0_7 2.283365 1_555
Ni12_7 Ni4_3 2.569644 1_655
Ni12_7 Ni4_7 2.571767 1_555
Ni12_7 Ni8_3 2.589484 1_655
Ni12_7 Ni8_7 2.596225 1_555
Ni12_7 Ni1_7 2.793341 1_555
Ni13_0 S0_1 2.283365 1_555
Ni13_0 Ni5_4 2.569644 1_555
Ni13_0 Ni5_0 2.571767 1_555
Ni13_0 Ni9_4 2.589484 1_555
Ni13_0 Ni9_0 2.596225 1_555
Ni13_0 Ni1_1 2.866567 1_555
Ni13_1 S0_0 2.283365 1_556
Ni13_1 Ni5_5 2.569644 1_555
Ni13_1 Ni5_1 2.571767 1_555
Ni13_1 Ni9_5 2.589484 1_555
Ni13_1 Ni9_1 2.596225 1_555
Ni13_1 Ni1_0 2.866567 1_556
Ni13_2 S0_3 2.283365 1_555
Ni13_2 Ni5_6 2.569644 1_555
Ni13_2 Ni5_2 2.571767 1_555
Ni13_2 Ni9_6 2.589484 1_555
Ni13_2 Ni9_2 2.596225 1_555
Ni13_2 Ni1_3 2.866567 1_555
Ni13_3 S0_2 2.283365 1_556
Ni13_3 Ni5_7 2.569644 1_555
Ni13_3 Ni5_3 2.571767 1_555
Ni13_3 Ni9_7 2.589484 1_555
Ni13_3 Ni9_3 2.596225 1_555
Ni13_3 Ni1_2 2.866567 1_556
Ni13_4 S0_5 2.283365 1_555
Ni13_4 Ni5_0 2.569644 1_655
Ni13_4 Ni5_4 2.571767 1_555
Ni13_4 Ni9_0 2.589484 1_655
Ni13_4 Ni9_4 2.596225 1_555
Ni13_4 Ni1_5 2.866567 1_555
Ni13_5 S0_4 2.283365 1_556
Ni13_5 Ni5_1 2.569644 1_655
Ni13_5 Ni5_5 2.571767 1_555
Ni13_5 Ni9_1 2.589484 1_655
Ni13_5 Ni9_5 2.596225 1_555
Ni13_5 Ni1_4 2.866567 1_556
Ni13_6 S0_7 2.283365 1_555
Ni13_6 Ni5_2 2.569644 1_655
Ni13_6 Ni5_6 2.571767 1_555
Ni13_6 Ni9_2 2.589484 1_655
Ni13_6 Ni9_6 2.596225 1_555
Ni13_6 Ni1_7 2.866567 1_555
Ni13_7 S0_6 2.283365 1_556
Ni13_7 Ni5_3 2.569644 1_655
Ni13_7 Ni5_7 2.571767 1_555
Ni13_7 Ni9_3 2.589484 1_655
Ni13_7 Ni9_7 2.596225 1_555
Ni13_7 Ni1_6 2.866567 1_556
Ni14_0 S1_2 2.283365 1_555
Ni14_0 Ni6_6 2.569644 1_455
Ni14_0 Ni6_2 2.571767 1_555
Ni14_0 Ni3_2 2.793341 1_555
Ni14_0 Ni2_0 2.866567 1_555
Ni14_1 S1_3 2.283365 1_555
Ni14_1 Ni6_7 2.569644 1_455
Ni14_1 Ni6_3 2.571767 1_555
Ni14_1 Ni3_3 2.793341 1_555
Ni14_1 Ni2_1 2.866567 1_555
Ni14_2 S1_0 2.283365 1_565
Ni14_2 Ni6_4 2.569644 1_465
Ni14_2 Ni6_0 2.571767 1_565
Ni14_2 Ni3_0 2.793341 1_565
Ni14_2 Ni2_2 2.866567 1_555
Ni14_3 S1_1 2.283365 1_565
Ni14_3 Ni6_5 2.569644 1_465
Ni14_3 Ni6_1 2.571767 1_565
Ni14_3 Ni3_1 2.793341 1_565
Ni14_3 Ni2_3 2.866567 1_555
Ni14_4 S1_6 2.283365 1_555
Ni14_4 Ni6_2 2.569644 1_555
Ni14_4 Ni6_6 2.571767 1_555
Ni14_4 Ni3_6 2.793341 1_555
Ni14_4 Ni2_4 2.866567 1_555
Ni14_5 S1_7 2.283365 1_555
Ni14_5 Ni6_3 2.569644 1_555
Ni14_5 Ni6_7 2.571767 1_555
Ni14_5 Ni3_7 2.793341 1_555
Ni14_5 Ni2_5 2.866567 1_555
Ni14_6 S1_4 2.283365 1_565
Ni14_6 Ni6_0 2.569644 1_565
Ni14_6 Ni6_4 2.571767 1_565
Ni14_6 Ni3_4 2.793341 1_565
Ni14_6 Ni2_6 2.866567 1_555
Ni14_7 S1_5 2.283365 1_565
Ni14_7 Ni6_1 2.569644 1_565
Ni14_7 Ni6_5 2.571767 1_565
Ni14_7 Ni3_5 2.793341 1_565
Ni14_7 Ni2_7 2.866567 1_555
Ni15_0 S1_0 2.283365 1_555
Ni15_0 Ni7_6 2.569644 1_445
Ni15_0 Ni7_2 2.571767 1_545
Ni15_0 Ni2_2 2.793341 1_545
Ni15_0 Ni3_0 2.866567 1_555
Ni15_1 S1_1 2.283365 1_555
Ni15_1 Ni7_7 2.569644 1_445
Ni15_1 Ni7_3 2.571767 1_545
Ni15_1 Ni2_3 2.793341 1_545
Ni15_1 Ni3_1 2.866567 1_555
Ni15_2 S1_2 2.283365 1_555
Ni15_2 Ni7_4 2.569644 1_455
Ni15_2 Ni7_0 2.571767 1_555
Ni15_2 Ni2_0 2.793341 1_555
Ni15_2 Ni3_2 2.866567 1_555
Ni15_3 S1_3 2.283365 1_555
Ni15_3 Ni7_5 2.569644 1_455
Ni15_3 Ni7_1 2.571767 1_555
Ni15_3 Ni2_1 2.793341 1_555
Ni15_3 Ni3_3 2.866567 1_555
Ni15_4 S1_4 2.283365 1_555
Ni15_4 Ni7_2 2.569644 1_545
Ni15_4 Ni7_6 2.571767 1_545
Ni15_4 Ni2_6 2.793341 1_545
Ni15_4 Ni3_4 2.866567 1_555
Ni15_5 S1_5 2.283365 1_555
Ni15_5 Ni7_3 2.569644 1_545
Ni15_5 Ni7_7 2.571767 1_545
Ni15_5 Ni2_7 2.793341 1_545
Ni15_5 Ni3_5 2.866567 1_555
Ni15_6 S1_6 2.283365 1_555
Ni15_6 Ni7_0 2.569644 1_555
Ni15_6 Ni7_4 2.571767 1_555
Ni15_6 Ni2_4 2.793341 1_555
Ni15_6 Ni3_6 2.866567 1_555
Ni15_7 S1_7 2.283365 1_555
Ni15_7 Ni7_1 2.569644 1_555
Ni15_7 Ni7_5 2.571767 1_555
Ni15_7 Ni2_5 2.793341 1_555
Ni15_7 Ni3_7 2.866567 1_555
Bi0_0 Ni4_0 2.718982 1_555
Bi0_0 Ni12_4 2.744055 1_455
Bi0_0 Ni12_0 2.746719 1_555
Bi0_0 Ni8_0 2.754612 1_555
Bi0_0 Bi4_4 3.522775 1_455
Bi0_0 Bi4_0 3.525893 1_555
Bi0_0 Bi12_4 3.597661 1_455
Bi0_0 Bi12_0 3.600651 1_555
Bi0_0 I3_4 3.698431 1_455
Bi0_0 I3_0 3.700734 1_555
Bi0_0 I1_2 3.921288 1_545
Bi0_1 Ni4_1 2.718982 1_555
Bi0_1 Ni12_5 2.744055 1_455
Bi0_1 Ni12_1 2.746719 1_555
Bi0_1 Ni8_1 2.754612 1_555
Bi0_1 Bi4_5 3.522775 1_455
Bi0_1 Bi4_1 3.525893 1_555
Bi0_1 Bi12_5 3.597661 1_455
Bi0_1 Bi12_1 3.600651 1_555
Bi0_1 I3_5 3.698431 1_455
Bi0_1 I3_1 3.700734 1_555
Bi0_1 I1_3 3.921288 1_545
Bi0_2 Ni4_2 2.718982 1_555
Bi0_2 Ni12_6 2.744055 1_455
Bi0_2 Ni12_2 2.746719 1_555
Bi0_2 Ni8_2 2.754612 1_555
Bi0_2 Bi4_6 3.522775 1_455
Bi0_2 Bi4_2 3.525893 1_555
Bi0_2 Bi12_6 3.597661 1_455
Bi0_2 Bi12_2 3.600651 1_555
Bi0_2 I3_6 3.698431 1_455
Bi0_2 I3_2 3.700734 1_555
Bi0_2 I1_0 3.921288 1_555
Bi0_3 Ni4_3 2.718982 1_555
Bi0_3 Ni12_7 2.744055 1_455
Bi0_3 Ni12_3 2.746719 1_555
Bi0_3 Ni8_3 2.754612 1_555
Bi0_3 Bi4_7 3.522775 1_455
Bi0_3 Bi4_3 3.525893 1_555
Bi0_3 Bi12_7 3.597661 1_455
Bi0_3 Bi12_3 3.600651 1_555
Bi0_3 I3_7 3.698431 1_455
Bi0_3 I3_3 3.700734 1_555
Bi0_3 I1_1 3.921288 1_555
Bi0_4 Ni4_4 2.718982 1_555
Bi0_4 Ni12_0 2.744055 1_555
Bi0_4 Ni12_4 2.746719 1_555
Bi0_4 Ni8_4 2.754612 1_555
Bi0_4 Bi4_0 3.522775 1_555
Bi0_4 Bi4_4 3.525893 1_555
Bi0_4 Bi12_0 3.597661 1_555
Bi0_4 Bi12_4 3.600651 1_555
Bi0_4 I3_0 3.698431 1_555
Bi0_4 I3_4 3.700734 1_555
Bi0_4 I1_6 3.921288 1_545
Bi0_5 Ni4_5 2.718982 1_555
Bi0_5 Ni12_1 2.744055 1_555
Bi0_5 Ni12_5 2.746719 1_555
Bi0_5 Ni8_5 2.754612 1_555
Bi0_5 Bi4_1 3.522775 1_555
Bi0_5 Bi4_5 3.525893 1_555
Bi0_5 Bi12_1 3.597661 1_555
Bi0_5 Bi12_5 3.600651 1_555
Bi0_5 I3_1 3.698431 1_555
Bi0_5 I3_5 3.700734 1_555
Bi0_5 I1_7 3.921288 1_545
Bi0_6 Ni4_6 2.718982 1_555
Bi0_6 Ni12_2 2.744055 1_555
Bi0_6 Ni12_6 2.746719 1_555
Bi0_6 Ni8_6 2.754612 1_555
Bi0_6 Bi4_2 3.522775 1_555
Bi0_6 Bi4_6 3.525893 1_555
Bi0_6 Bi12_2 3.597661 1_555
Bi0_6 Bi12_6 3.600651 1_555
Bi0_6 I3_2 3.698431 1_555
Bi0_6 I3_6 3.700734 1_555
Bi0_6 I1_4 3.921288 1_555
Bi0_7 Ni4_7 2.718982 1_555
Bi0_7 Ni12_3 2.744055 1_555
Bi0_7 Ni12_7 2.746719 1_555
Bi0_7 Ni8_7 2.754612 1_555
Bi0_7 Bi4_3 3.522775 1_555
Bi0_7 Bi4_7 3.525893 1_555
Bi0_7 Bi12_3 3.597661 1_555
Bi0_7 Bi12_7 3.600651 1_555
Bi0_7 I3_3 3.698431 1_555
Bi0_7 I3_7 3.700734 1_555
Bi0_7 I1_5 3.921288 1_555
Bi1_0 Ni5_0 2.718982 1_555
Bi1_0 Ni13_4 2.744055 1_455
Bi1_0 Ni13_0 2.746719 1_555
Bi1_0 Ni9_0 2.754612 1_555
Bi1_0 Bi5_4 3.522775 1_455
Bi1_0 Bi5_0 3.525893 1_555
Bi1_0 I2_4 3.698431 1_455
Bi1_0 I2_0 3.700734 1_555
Bi1_0 I0_2 3.921288 1_555
Bi1_1 Ni5_1 2.718982 1_555
Bi1_1 Ni13_5 2.744055 1_455
Bi1_1 Ni13_1 2.746719 1_555
Bi1_1 Ni9_1 2.754612 1_555
Bi1_1 Bi5_5 3.522775 1_455
Bi1_1 Bi5_1 3.525893 1_555
Bi1_1 I2_5 3.698431 1_455
Bi1_1 I2_1 3.700734 1_555
Bi1_1 I0_3 3.921288 1_555
Bi1_2 Ni5_2 2.718982 1_555
Bi1_2 Ni13_6 2.744055 1_455
Bi1_2 Ni13_2 2.746719 1_555
Bi1_2 Ni9_2 2.754612 1_555
Bi1_2 Bi5_6 3.522775 1_455
Bi1_2 Bi5_2 3.525893 1_555
Bi1_2 I2_6 3.698431 1_455
Bi1_2 I2_2 3.700734 1_555
Bi1_2 I0_0 3.921288 1_565
Bi1_3 Ni5_3 2.718982 1_555
Bi1_3 Ni13_7 2.744055 1_455
Bi1_3 Ni13_3 2.746719 1_555
Bi1_3 Ni9_3 2.754612 1_555
Bi1_3 Bi5_7 3.522775 1_455
Bi1_3 Bi5_3 3.525893 1_555
Bi1_3 I2_7 3.698431 1_455
Bi1_3 I2_3 3.700734 1_555
Bi1_3 I0_1 3.921288 1_565
Bi1_4 Ni5_4 2.718982 1_555
Bi1_4 Ni13_0 2.744055 1_555
Bi1_4 Ni13_4 2.746719 1_555
Bi1_4 Ni9_4 2.754612 1_555
Bi1_4 Bi5_0 3.522775 1_555
Bi1_4 Bi5_4 3.525893 1_555
Bi1_4 I2_0 3.698431 1_555
Bi1_4 I2_4 3.700734 1_555
Bi1_4 I0_6 3.921288 1_555
Bi1_5 Ni5_5 2.718982 1_555
Bi1_5 Ni13_1 2.744055 1_555
Bi1_5 Ni13_5 2.746719 1_555
Bi1_5 Ni9_5 2.754612 1_555
Bi1_5 Bi5_1 3.522775 1_555
Bi1_5 Bi5_5 3.525893 1_555
Bi1_5 I2_1 3.698431 1_555
Bi1_5 I2_5 3.700734 1_555
Bi1_5 I0_7 3.921288 1_555
Bi1_6 Ni5_6 2.718982 1_555
Bi1_6 Ni13_2 2.744055 1_555
Bi1_6 Ni13_6 2.746719 1_555
Bi1_6 Ni9_6 2.754612 1_555
Bi1_6 Bi5_2 3.522775 1_555
Bi1_6 Bi5_6 3.525893 1_555
Bi1_6 I2_2 3.698431 1_555
Bi1_6 I2_6 3.700734 1_555
Bi1_6 I0_4 3.921288 1_565
Bi1_7 Ni5_7 2.718982 1_555
Bi1_7 Ni13_3 2.744055 1_555
Bi1_7 Ni13_7 2.746719 1_555
Bi1_7 Ni9_7 2.754612 1_555
Bi1_7 Bi5_3 3.522775 1_555
Bi1_7 Bi5_7 3.525893 1_555
Bi1_7 I2_3 3.698431 1_555
Bi1_7 I2_7 3.700734 1_555
Bi1_7 I0_5 3.921288 1_565
Bi2_0 Ni6_2 2.718982 1_555
Bi2_0 Ni14_4 2.744055 1_555
Bi2_0 Ni14_0 2.746719 1_555
Bi2_0 Ni10_0 2.754612 1_555
Bi2_0 Bi6_4 3.522775 1_555
Bi2_0 Bi6_0 3.525893 1_555
Bi2_0 I1_4 3.698431 1_555
Bi2_0 I1_0 3.700734 1_555
Bi2_0 I3_0 3.921288 1_555
Bi2_1 Ni6_3 2.718982 1_555
Bi2_1 Ni14_5 2.744055 1_555
Bi2_1 Ni14_1 2.746719 1_555
Bi2_1 Ni10_1 2.754612 1_555
Bi2_1 Bi6_5 3.522775 1_555
Bi2_1 Bi6_1 3.525893 1_555
Bi2_1 I1_5 3.698431 1_555
Bi2_1 I1_1 3.700734 1_555
Bi2_1 I3_1 3.921288 1_555
Bi2_2 Ni6_0 2.718982 1_565
Bi2_2 Ni14_6 2.744055 1_555
Bi2_2 Ni14_2 2.746719 1_555
Bi2_2 Ni10_2 2.754612 1_555
Bi2_2 Bi6_6 3.522775 1_555
Bi2_2 Bi6_2 3.525893 1_555
Bi2_2 I1_6 3.698431 1_555
Bi2_2 I1_2 3.700734 1_555
Bi2_2 I3_2 3.921288 1_555
Bi2_3 Ni6_1 2.718982 1_565
Bi2_3 Ni14_7 2.744055 1_555
Bi2_3 Ni14_3 2.746719 1_555
Bi2_3 Ni10_3 2.754612 1_555
Bi2_3 Bi6_7 3.522775 1_555
Bi2_3 Bi6_3 3.525893 1_555
Bi2_3 I1_7 3.698431 1_555
Bi2_3 I1_3 3.700734 1_555
Bi2_3 I3_3 3.921288 1_555
Bi2_4 Ni6_6 2.718982 1_555
Bi2_4 Ni14_0 2.744055 1_655
Bi2_4 Ni14_4 2.746719 1_555
Bi2_4 Ni10_4 2.754612 1_555
Bi2_4 Bi6_0 3.522775 1_655
Bi2_4 Bi6_4 3.525893 1_555
Bi2_4 I1_0 3.698431 1_655
Bi2_4 I1_4 3.700734 1_555
Bi2_4 I3_4 3.921288 1_555
Bi2_5 Ni6_7 2.718982 1_555
Bi2_5 Ni14_1 2.744055 1_655
Bi2_5 Ni14_5 2.746719 1_555
Bi2_5 Ni10_5 2.754612 1_555
Bi2_5 Bi6_1 3.522775 1_655
Bi2_5 Bi6_5 3.525893 1_555
Bi2_5 I1_1 3.698431 1_655
Bi2_5 I1_5 3.700734 1_555
Bi2_5 I3_5 3.921288 1_555
Bi2_6 Ni6_4 2.718982 1_565
Bi2_6 Ni14_2 2.744055 1_655
Bi2_6 Ni14_6 2.746719 1_555
Bi2_6 Ni10_6 2.754612 1_555
Bi2_6 Bi6_2 3.522775 1_655
Bi2_6 Bi6_6 3.525893 1_555
Bi2_6 I1_2 3.698431 1_655
Bi2_6 I1_6 3.700734 1_555
Bi2_6 I3_6 3.921288 1_555
Bi2_7 Ni6_5 2.718982 1_565
Bi2_7 Ni14_3 2.744055 1_655
Bi2_7 Ni14_7 2.746719 1_555
Bi2_7 Ni10_7 2.754612 1_555
Bi2_7 Bi6_3 3.522775 1_655
Bi2_7 Bi6_7 3.525893 1_555
Bi2_7 I1_3 3.698431 1_655
Bi2_7 I1_7 3.700734 1_555
Bi2_7 I3_7 3.921288 1_555
Bi3_0 Ni7_2 2.718982 1_545
Bi3_0 Ni15_4 2.744055 1_555
Bi3_0 Ni15_0 2.746719 1_555
Bi3_0 Ni11_0 2.754612 1_555
Bi3_0 Bi7_4 3.522775 1_555
Bi3_0 Bi7_0 3.525893 1_555
Bi3_0 I0_4 3.698431 1_555
Bi3_0 I0_0 3.700734 1_555
Bi3_0 I2_0 3.921288 1_555
Bi3_1 Ni7_3 2.718982 1_545
Bi3_1 Ni15_5 2.744055 1_555
Bi3_1 Ni15_1 2.746719 1_555
Bi3_1 Ni11_1 2.754612 1_555
Bi3_1 Bi7_5 3.522775 1_555
Bi3_1 Bi7_1 3.525893 1_555
Bi3_1 I0_5 3.698431 1_555
Bi3_1 I0_1 3.700734 1_555
Bi3_1 I2_1 3.921288 1_555
Bi3_2 Ni7_0 2.718982 1_555
Bi3_2 Ni15_6 2.744055 1_555
Bi3_2 Ni15_2 2.746719 1_555
Bi3_2 Ni11_2 2.754612 1_555
Bi3_2 Bi7_6 3.522775 1_555
Bi3_2 Bi7_2 3.525893 1_555
Bi3_2 I0_6 3.698431 1_555
Bi3_2 I0_2 3.700734 1_555
Bi3_2 I2_2 3.921288 1_555
Bi3_3 Ni7_1 2.718982 1_555
Bi3_3 Ni15_7 2.744055 1_555
Bi3_3 Ni15_3 2.746719 1_555
Bi3_3 Ni11_3 2.754612 1_555
Bi3_3 Bi7_7 3.522775 1_555
Bi3_3 Bi7_3 3.525893 1_555
Bi3_3 I0_7 3.698431 1_555
Bi3_3 I0_3 3.700734 1_555
Bi3_3 I2_3 3.921288 1_555
Bi3_4 Ni7_6 2.718982 1_545
Bi3_4 Ni15_0 2.744055 1_655
Bi3_4 Ni15_4 2.746719 1_555
Bi3_4 Ni11_4 2.754612 1_555
Bi3_4 Bi7_0 3.522775 1_655
Bi3_4 Bi7_4 3.525893 1_555
Bi3_4 I0_0 3.698431 1_655
Bi3_4 I0_4 3.700734 1_555
Bi3_4 I2_4 3.921288 1_555
Bi3_5 Ni7_7 2.718982 1_545
Bi3_5 Ni15_1 2.744055 1_655
Bi3_5 Ni15_5 2.746719 1_555
Bi3_5 Ni11_5 2.754612 1_555
Bi3_5 Bi7_1 3.522775 1_655
Bi3_5 Bi7_5 3.525893 1_555
Bi3_5 I0_1 3.698431 1_655
Bi3_5 I0_5 3.700734 1_555
Bi3_5 I2_5 3.921288 1_555
Bi3_6 Ni7_4 2.718982 1_555
Bi3_6 Ni15_2 2.744055 1_655
Bi3_6 Ni15_6 2.746719 1_555
Bi3_6 Ni11_6 2.754612 1_555
Bi3_6 Bi7_2 3.522775 1_655
Bi3_6 Bi7_6 3.525893 1_555
Bi3_6 I0_2 3.698431 1_655
Bi3_6 I0_6 3.700734 1_555
Bi3_6 I2_6 3.921288 1_555
Bi3_7 Ni7_5 2.718982 1_555
Bi3_7 Ni15_3 2.744055 1_655
Bi3_7 Ni15_7 2.746719 1_555
Bi3_7 Ni11_7 2.754612 1_555
Bi3_7 Bi7_3 3.522775 1_655
Bi3_7 Bi7_7 3.525893 1_555
Bi3_7 I0_3 3.698431 1_655
Bi3_7 I0_7 3.700734 1_555
Bi3_7 I2_7 3.921288 1_555
Bi4_0 Ni12_0 2.720246 1_555
Bi4_0 Ni8_4 2.735397 1_555
Bi4_0 Ni8_0 2.743119 1_555
Bi4_0 Ni0_1 2.772266 1_554
Bi4_0 Bi8_5 3.553137 1_554
Bi4_0 Bi8_1 3.556130 1_554
Bi4_0 Bi9_6 3.784318 1_545
Bi4_0 Bi9_2 3.787128 1_545
Bi4_0 I1_6 3.827538 1_545
Bi4_0 I1_2 3.829755 1_545
Bi4_1 Ni12_1 2.720246 1_555
Bi4_1 Ni8_5 2.735397 1_555
Bi4_1 Ni8_1 2.743119 1_555
Bi4_1 Ni0_0 2.772266 1_555
Bi4_1 Bi8_4 3.553137 1_555
Bi4_1 Bi8_0 3.556130 1_555
Bi4_1 Bi9_7 3.784318 1_545
Bi4_1 Bi9_3 3.787128 1_545
Bi4_1 I1_7 3.827538 1_545
Bi4_1 I1_3 3.829755 1_545
Bi4_2 Ni12_2 2.720246 1_555
Bi4_2 Ni8_6 2.735397 1_555
Bi4_2 Ni8_2 2.743119 1_555
Bi4_2 Ni0_3 2.772266 1_554
Bi4_2 Bi8_7 3.553137 1_554
Bi4_2 Bi8_3 3.556130 1_554
Bi4_2 Bi9_4 3.784318 1_555
Bi4_2 Bi9_0 3.787128 1_555
Bi4_2 I1_4 3.827538 1_555
Bi4_2 I1_0 3.829755 1_555
Bi4_3 Ni12_3 2.720246 1_555
Bi4_3 Ni8_7 2.735397 1_555
Bi4_3 Ni8_3 2.743119 1_555
Bi4_3 Ni0_2 2.772266 1_555
Bi4_3 Bi8_6 3.553137 1_555
Bi4_3 Bi8_2 3.556130 1_555
Bi4_3 Bi9_5 3.784318 1_555
Bi4_3 Bi9_1 3.787128 1_555
Bi4_3 I1_5 3.827538 1_555
Bi4_3 I1_1 3.829755 1_555
Bi4_4 Ni12_4 2.720246 1_555
Bi4_4 Ni8_0 2.735397 1_655
Bi4_4 Ni8_4 2.743119 1_555
Bi4_4 Ni0_5 2.772266 1_554
Bi4_4 Bi8_1 3.553137 1_654
Bi4_4 Bi8_5 3.556130 1_554
Bi4_4 Bi9_2 3.784318 1_645
Bi4_4 Bi9_6 3.787128 1_545
Bi4_4 I1_2 3.827538 1_645
Bi4_4 I1_6 3.829755 1_545
Bi4_5 Ni12_5 2.720246 1_555
Bi4_5 Ni8_1 2.735397 1_655
Bi4_5 Ni8_5 2.743119 1_555
Bi4_5 Ni0_4 2.772266 1_555
Bi4_5 Bi8_0 3.553137 1_655
Bi4_5 Bi8_4 3.556130 1_555
Bi4_5 Bi9_3 3.784318 1_645
Bi4_5 Bi9_7 3.787128 1_545
Bi4_5 I1_3 3.827538 1_645
Bi4_5 I1_7 3.829755 1_545
Bi4_6 Ni12_6 2.720246 1_555
Bi4_6 Ni8_2 2.735397 1_655
Bi4_6 Ni8_6 2.743119 1_555
Bi4_6 Ni0_7 2.772266 1_554
Bi4_6 Bi8_3 3.553137 1_654
Bi4_6 Bi8_7 3.556130 1_554
Bi4_6 Bi9_0 3.784318 1_655
Bi4_6 Bi9_4 3.787128 1_555
Bi4_6 I1_0 3.827538 1_655
Bi4_6 I1_4 3.829755 1_555
Bi4_7 Ni12_7 2.720246 1_555
Bi4_7 Ni8_3 2.735397 1_655
Bi4_7 Ni8_7 2.743119 1_555
Bi4_7 Ni0_6 2.772266 1_555
Bi4_7 Bi8_2 3.553137 1_655
Bi4_7 Bi8_6 3.556130 1_555
Bi4_7 Bi9_1 3.784318 1_655
Bi4_7 Bi9_5 3.787128 1_555
Bi4_7 I1_1 3.827538 1_655
Bi4_7 I1_5 3.829755 1_555
Bi5_0 Ni13_0 2.720246 1_555
Bi5_0 Ni9_4 2.735397 1_555
Bi5_0 Ni9_0 2.743119 1_555
Bi5_0 Ni1_1 2.772266 1_555
Bi5_0 Bi9_5 3.553137 1_555
Bi5_0 Bi9_1 3.556130 1_555
Bi5_0 Bi8_6 3.784318 1_555
Bi5_0 Bi8_2 3.787128 1_555
Bi5_0 I0_6 3.827538 1_555
Bi5_0 I0_2 3.829755 1_555
Bi5_1 Ni13_1 2.720246 1_555
Bi5_1 Ni9_5 2.735397 1_555
Bi5_1 Ni9_1 2.743119 1_555
Bi5_1 Ni1_0 2.772266 1_556
Bi5_1 Bi9_4 3.553137 1_556
Bi5_1 Bi9_0 3.556130 1_556
Bi5_1 Bi8_7 3.784318 1_555
Bi5_1 Bi8_3 3.787128 1_555
Bi5_1 I0_7 3.827538 1_555
Bi5_1 I0_3 3.829755 1_555
Bi5_2 Ni13_2 2.720246 1_555
Bi5_2 Ni9_6 2.735397 1_555
Bi5_2 Ni9_2 2.743119 1_555
Bi5_2 Ni1_3 2.772266 1_555
Bi5_2 Bi9_7 3.553137 1_555
Bi5_2 Bi9_3 3.556130 1_555
Bi5_2 Bi8_4 3.784318 1_565
Bi5_2 Bi8_0 3.787128 1_565
Bi5_2 I0_4 3.827538 1_565
Bi5_2 I0_0 3.829755 1_565
Bi5_3 Ni13_3 2.720246 1_555
Bi5_3 Ni9_7 2.735397 1_555
Bi5_3 Ni9_3 2.743119 1_555
Bi5_3 Ni1_2 2.772266 1_556
Bi5_3 Bi9_6 3.553137 1_556
Bi5_3 Bi9_2 3.556130 1_556
Bi5_3 Bi8_5 3.784318 1_565
Bi5_3 Bi8_1 3.787128 1_565
Bi5_3 I0_5 3.827538 1_565
Bi5_3 I0_1 3.829755 1_565
Bi5_4 Ni13_4 2.720246 1_555
Bi5_4 Ni9_0 2.735397 1_655
Bi5_4 Ni9_4 2.743119 1_555
Bi5_4 Ni1_5 2.772266 1_555
Bi5_4 Bi9_1 3.553137 1_655
Bi5_4 Bi9_5 3.556130 1_555
Bi5_4 Bi8_2 3.784318 1_655
Bi5_4 Bi8_6 3.787128 1_555
Bi5_4 I0_2 3.827538 1_655
Bi5_4 I0_6 3.829755 1_555
Bi5_5 Ni13_5 2.720246 1_555
Bi5_5 Ni9_1 2.735397 1_655
Bi5_5 Ni9_5 2.743119 1_555
Bi5_5 Ni1_4 2.772266 1_556
Bi5_5 Bi9_0 3.553137 1_656
Bi5_5 Bi9_4 3.556130 1_556
Bi5_5 Bi8_3 3.784318 1_655
Bi5_5 Bi8_7 3.787128 1_555
Bi5_5 I0_3 3.827538 1_655
Bi5_5 I0_7 3.829755 1_555
Bi5_6 Ni13_6 2.720246 1_555
Bi5_6 Ni9_2 2.735397 1_655
Bi5_6 Ni9_6 2.743119 1_555
Bi5_6 Ni1_7 2.772266 1_555
Bi5_6 Bi9_3 3.553137 1_655
Bi5_6 Bi9_7 3.556130 1_555
Bi5_6 Bi8_0 3.784318 1_665
Bi5_6 Bi8_4 3.787128 1_565
Bi5_6 I0_0 3.827538 1_665
Bi5_6 I0_4 3.829755 1_565
Bi5_7 Ni13_7 2.720246 1_555
Bi5_7 Ni9_3 2.735397 1_655
Bi5_7 Ni9_7 2.743119 1_555
Bi5_7 Ni1_6 2.772266 1_556
Bi5_7 Bi9_2 3.553137 1_656
Bi5_7 Bi9_6 3.556130 1_556
Bi5_7 Bi8_1 3.784318 1_665
Bi5_7 Bi8_5 3.787128 1_565
Bi5_7 I0_1 3.827538 1_665
Bi5_7 I0_5 3.829755 1_565
Bi6_0 Ni14_0 2.720246 1_555
Bi6_0 Ni10_4 2.735397 1_455
Bi6_0 Ni10_0 2.743119 1_555
Bi6_0 Ni2_0 2.772266 1_555
Bi6_0 I3_4 3.827538 1_455
Bi6_0 I3_0 3.829755 1_555
Bi6_1 Ni14_1 2.720246 1_555
Bi6_1 Ni10_5 2.735397 1_455
Bi6_1 Ni10_1 2.743119 1_555
Bi6_1 Ni2_1 2.772266 1_555
Bi6_1 I3_5 3.827538 1_455
Bi6_1 I3_1 3.829755 1_555
Bi6_2 Ni14_2 2.720246 1_555
Bi6_2 Ni10_6 2.735397 1_455
Bi6_2 Ni10_2 2.743119 1_555
Bi6_2 Ni2_2 2.772266 1_555
Bi6_2 I3_6 3.827538 1_455
Bi6_2 I3_2 3.829755 1_555
Bi6_3 Ni14_3 2.720246 1_555
Bi6_3 Ni10_7 2.735397 1_455
Bi6_3 Ni10_3 2.743119 1_555
Bi6_3 Ni2_3 2.772266 1_555
Bi6_3 I3_7 3.827538 1_455
Bi6_3 I3_3 3.829755 1_555
Bi6_4 Ni14_4 2.720246 1_555
Bi6_4 Ni10_0 2.735397 1_555
Bi6_4 Ni10_4 2.743119 1_555
Bi6_4 Ni2_4 2.772266 1_555
Bi6_4 I3_0 3.827538 1_555
Bi6_4 I3_4 3.829755 1_555
Bi6_5 Ni14_5 2.720246 1_555
Bi6_5 Ni10_1 2.735397 1_555
Bi6_5 Ni10_5 2.743119 1_555
Bi6_5 Ni2_5 2.772266 1_555
Bi6_5 I3_1 3.827538 1_555
Bi6_5 I3_5 3.829755 1_555
Bi6_6 Ni14_6 2.720246 1_555
Bi6_6 Ni10_2 2.735397 1_555
Bi6_6 Ni10_6 2.743119 1_555
Bi6_6 Ni2_6 2.772266 1_555
Bi6_6 I3_2 3.827538 1_555
Bi6_6 I3_6 3.829755 1_555
Bi6_7 Ni14_7 2.720246 1_555
Bi6_7 Ni10_3 2.735397 1_555
Bi6_7 Ni10_7 2.743119 1_555
Bi6_7 Ni2_7 2.772266 1_555
Bi6_7 I3_3 3.827538 1_555
Bi6_7 I3_7 3.829755 1_555
Bi7_0 Ni15_0 2.720246 1_555
Bi7_0 Ni11_4 2.735397 1_455
Bi7_0 Ni11_0 2.743119 1_555
Bi7_0 Ni3_0 2.772266 1_555
Bi7_0 I2_4 3.827538 1_455
Bi7_0 I2_0 3.829755 1_555
Bi7_1 Ni15_1 2.720246 1_555
Bi7_1 Ni11_5 2.735397 1_455
Bi7_1 Ni11_1 2.743119 1_555
Bi7_1 Ni3_1 2.772266 1_555
Bi7_1 I2_5 3.827538 1_455
Bi7_1 I2_1 3.829755 1_555
Bi7_2 Ni15_2 2.720246 1_555
Bi7_2 Ni11_6 2.735397 1_455
Bi7_2 Ni11_2 2.743119 1_555
Bi7_2 Ni3_2 2.772266 1_555
Bi7_2 I2_6 3.827538 1_455
Bi7_2 I2_2 3.829755 1_555
Bi7_3 Ni15_3 2.720246 1_555
Bi7_3 Ni11_7 2.735397 1_455
Bi7_3 Ni11_3 2.743119 1_555
Bi7_3 Ni3_3 2.772266 1_555
Bi7_3 I2_7 3.827538 1_455
Bi7_3 I2_3 3.829755 1_555
Bi7_4 Ni15_4 2.720246 1_555
Bi7_4 Ni11_0 2.735397 1_555
Bi7_4 Ni11_4 2.743119 1_555
Bi7_4 Ni3_4 2.772266 1_555
Bi7_4 I2_0 3.827538 1_555
Bi7_4 I2_4 3.829755 1_555
Bi7_5 Ni15_5 2.720246 1_555
Bi7_5 Ni11_1 2.735397 1_555
Bi7_5 Ni11_5 2.743119 1_555
Bi7_5 Ni3_5 2.772266 1_555
Bi7_5 I2_1 3.827538 1_555
Bi7_5 I2_5 3.829755 1_555
Bi7_6 Ni15_6 2.720246 1_555
Bi7_6 Ni11_2 2.735397 1_555
Bi7_6 Ni11_6 2.743119 1_555
Bi7_6 Ni3_6 2.772266 1_555
Bi7_6 I2_2 3.827538 1_555
Bi7_6 I2_6 3.829755 1_555
Bi7_7 Ni15_7 2.720246 1_555
Bi7_7 Ni11_3 2.735397 1_555
Bi7_7 Ni11_7 2.743119 1_555
Bi7_7 Ni3_7 2.772266 1_555
Bi7_7 I2_3 3.827538 1_555
Bi7_7 I2_7 3.829755 1_555
Bi8_0 Ni0_4 2.722118 1_455
Bi8_0 Ni8_1 2.725501 1_555
Bi8_0 Ni0_0 2.725650 1_555
Bi8_0 Ni5_0 2.754950 1_555
Bi8_0 I0_0 3.561430 1_555
Bi8_0 Bi9_3 3.684059 1_545
Bi8_1 Ni0_5 2.722118 1_455
Bi8_1 Ni8_0 2.725501 1_556
Bi8_1 Ni0_1 2.725650 1_555
Bi8_1 Ni5_1 2.754950 1_555
Bi8_1 I0_1 3.561430 1_555
Bi8_1 Bi9_2 3.684059 1_546
Bi8_2 Ni0_6 2.722118 1_455
Bi8_2 Ni8_3 2.725501 1_555
Bi8_2 Ni0_2 2.725650 1_555
Bi8_2 Ni5_2 2.754950 1_555
Bi8_2 I0_2 3.561430 1_555
Bi8_2 Bi9_1 3.684059 1_555
Bi8_3 Ni0_7 2.722118 1_455
Bi8_3 Ni8_2 2.725501 1_556
Bi8_3 Ni0_3 2.725650 1_555
Bi8_3 Ni5_3 2.754950 1_555
Bi8_3 I0_3 3.561430 1_555
Bi8_3 Bi9_0 3.684059 1_556
Bi8_4 Ni0_0 2.722118 1_555
Bi8_4 Ni8_5 2.725501 1_555
Bi8_4 Ni0_4 2.725650 1_555
Bi8_4 Ni5_4 2.754950 1_555
Bi8_4 I0_4 3.561430 1_555
Bi8_4 Bi9_7 3.684059 1_545
Bi8_5 Ni0_1 2.722118 1_555
Bi8_5 Ni8_4 2.725501 1_556
Bi8_5 Ni0_5 2.725650 1_555
Bi8_5 Ni5_5 2.754950 1_555
Bi8_5 I0_5 3.561430 1_555
Bi8_5 Bi9_6 3.684059 1_546
Bi8_6 Ni0_2 2.722118 1_555
Bi8_6 Ni8_7 2.725501 1_555
Bi8_6 Ni0_6 2.725650 1_555
Bi8_6 Ni5_6 2.754950 1_555
Bi8_6 I0_6 3.561430 1_555
Bi8_6 Bi9_5 3.684059 1_555
Bi8_7 Ni0_3 2.722118 1_555
Bi8_7 Ni8_6 2.725501 1_556
Bi8_7 Ni0_7 2.725650 1_555
Bi8_7 Ni5_7 2.754950 1_555
Bi8_7 I0_7 3.561430 1_555
Bi8_7 Bi9_4 3.684059 1_556
Bi9_0 Ni1_4 2.722118 1_455
Bi9_0 Ni9_1 2.725501 1_554
Bi9_0 Ni1_0 2.725650 1_555
Bi9_0 Ni4_0 2.754950 1_555
Bi9_0 I1_0 3.561430 1_555
Bi9_1 Ni1_5 2.722118 1_455
Bi9_1 Ni9_0 2.725501 1_555
Bi9_1 Ni1_1 2.725650 1_555
Bi9_1 Ni4_1 2.754950 1_555
Bi9_1 I1_1 3.561430 1_555
Bi9_2 Ni1_6 2.722118 1_455
Bi9_2 Ni9_3 2.725501 1_554
Bi9_2 Ni1_2 2.725650 1_555
Bi9_2 Ni4_2 2.754950 1_555
Bi9_2 I1_2 3.561430 1_555
Bi9_3 Ni1_7 2.722118 1_455
Bi9_3 Ni9_2 2.725501 1_555
Bi9_3 Ni1_3 2.725650 1_555
Bi9_3 Ni4_3 2.754950 1_555
Bi9_3 I1_3 3.561430 1_555
Bi9_4 Ni1_0 2.722118 1_555
Bi9_4 Ni9_5 2.725501 1_554
Bi9_4 Ni1_4 2.725650 1_555
Bi9_4 Ni4_4 2.754950 1_555
Bi9_4 I1_4 3.561430 1_555
Bi9_5 Ni1_1 2.722118 1_555
Bi9_5 Ni9_4 2.725501 1_555
Bi9_5 Ni1_5 2.725650 1_555
Bi9_5 Ni4_5 2.754950 1_555
Bi9_5 I1_5 3.561430 1_555
Bi9_6 Ni1_2 2.722118 1_555
Bi9_6 Ni9_7 2.725501 1_554
Bi9_6 Ni1_6 2.725650 1_555
Bi9_6 Ni4_6 2.754950 1_555
Bi9_6 I1_6 3.561430 1_555
Bi9_7 Ni1_3 2.722118 1_555
Bi9_7 Ni9_6 2.725501 1_555
Bi9_7 Ni1_7 2.725650 1_555
Bi9_7 Ni4_7 2.754950 1_555
Bi9_7 I1_7 3.561430 1_555
Bi10_0 Ni2_4 2.722118 1_555
Bi10_0 Ni10_0 2.725501 1_555
Bi10_0 Ni2_0 2.725650 1_555
Bi10_0 Ni7_0 2.754950 1_555
Bi10_0 Bi6_4 3.553137 1_555
Bi10_0 Bi6_0 3.556130 1_555
Bi10_0 I2_0 3.561430 1_555
Bi10_0 Bi15_4 3.569332 1_555
Bi10_0 Bi15_0 3.572247 1_555
Bi10_0 Bi11_0 3.684059 1_555
Bi10_0 Bi7_4 3.784318 1_555
Bi10_0 Bi7_0 3.787128 1_555
Bi10_1 Ni2_5 2.722118 1_555
Bi10_1 Ni10_1 2.725501 1_555
Bi10_1 Ni2_1 2.725650 1_555
Bi10_1 Ni7_1 2.754950 1_555
Bi10_1 Bi6_5 3.553137 1_555
Bi10_1 Bi6_1 3.556130 1_555
Bi10_1 I2_1 3.561430 1_555
Bi10_1 Bi15_5 3.569332 1_555
Bi10_1 Bi15_1 3.572247 1_555
Bi10_1 Bi11_1 3.684059 1_555
Bi10_1 Bi7_5 3.784318 1_555
Bi10_1 Bi7_1 3.787128 1_555
Bi10_2 Ni2_6 2.722118 1_555
Bi10_2 Ni10_2 2.725501 1_555
Bi10_2 Ni2_2 2.725650 1_555
Bi10_2 Ni7_2 2.754950 1_555
Bi10_2 Bi6_6 3.553137 1_555
Bi10_2 Bi6_2 3.556130 1_555
Bi10_2 I2_2 3.561430 1_555
Bi10_2 Bi15_6 3.569332 1_555
Bi10_2 Bi15_2 3.572247 1_555
Bi10_2 Bi11_2 3.684059 1_555
Bi10_2 Bi7_6 3.784318 1_555
Bi10_2 Bi7_2 3.787128 1_555
Bi10_3 Ni2_7 2.722118 1_555
Bi10_3 Ni10_3 2.725501 1_555
Bi10_3 Ni2_3 2.725650 1_555
Bi10_3 Ni7_3 2.754950 1_555
Bi10_3 Bi6_7 3.553137 1_555
Bi10_3 Bi6_3 3.556130 1_555
Bi10_3 I2_3 3.561430 1_555
Bi10_3 Bi15_7 3.569332 1_555
Bi10_3 Bi15_3 3.572247 1_555
Bi10_3 Bi11_3 3.684059 1_555
Bi10_3 Bi7_7 3.784318 1_555
Bi10_3 Bi7_3 3.787128 1_555
Bi10_4 Ni2_0 2.722118 1_655
Bi10_4 Ni10_4 2.725501 1_555
Bi10_4 Ni2_4 2.725650 1_555
Bi10_4 Ni7_4 2.754950 1_555
Bi10_4 Bi6_0 3.553137 1_655
Bi10_4 Bi6_4 3.556130 1_555
Bi10_4 I2_4 3.561430 1_555
Bi10_4 Bi15_0 3.569332 1_655
Bi10_4 Bi15_4 3.572247 1_555
Bi10_4 Bi11_4 3.684059 1_555
Bi10_4 Bi7_0 3.784318 1_655
Bi10_4 Bi7_4 3.787128 1_555
Bi10_5 Ni2_1 2.722118 1_655
Bi10_5 Ni10_5 2.725501 1_555
Bi10_5 Ni2_5 2.725650 1_555
Bi10_5 Ni7_5 2.754950 1_555
Bi10_5 Bi6_1 3.553137 1_655
Bi10_5 Bi6_5 3.556130 1_555
Bi10_5 I2_5 3.561430 1_555
Bi10_5 Bi15_1 3.569332 1_655
Bi10_5 Bi15_5 3.572247 1_555
Bi10_5 Bi11_5 3.684059 1_555
Bi10_5 Bi7_1 3.784318 1_655
Bi10_5 Bi7_5 3.787128 1_555
Bi10_6 Ni2_2 2.722118 1_655
Bi10_6 Ni10_6 2.725501 1_555
Bi10_6 Ni2_6 2.725650 1_555
Bi10_6 Ni7_6 2.754950 1_555
Bi10_6 Bi6_2 3.553137 1_655
Bi10_6 Bi6_6 3.556130 1_555
Bi10_6 I2_6 3.561430 1_555
Bi10_6 Bi15_2 3.569332 1_655
Bi10_6 Bi15_6 3.572247 1_555
Bi10_6 Bi11_6 3.684059 1_555
Bi10_6 Bi7_2 3.784318 1_655
Bi10_6 Bi7_6 3.787128 1_555
Bi10_7 Ni2_3 2.722118 1_655
Bi10_7 Ni10_7 2.725501 1_555
Bi10_7 Ni2_7 2.725650 1_555
Bi10_7 Ni7_7 2.754950 1_555
Bi10_7 Bi6_3 3.553137 1_655
Bi10_7 Bi6_7 3.556130 1_555
Bi10_7 I2_7 3.561430 1_555
Bi10_7 Bi15_3 3.569332 1_655
Bi10_7 Bi15_7 3.572247 1_555
Bi10_7 Bi11_7 3.684059 1_555
Bi10_7 Bi7_3 3.784318 1_655
Bi10_7 Bi7_7 3.787128 1_555
Bi11_0 Ni3_4 2.722118 1_555
Bi11_0 Ni11_0 2.725501 1_555
Bi11_0 Ni3_0 2.725650 1_555
Bi11_0 Ni6_0 2.754950 1_555
Bi11_0 Bi7_4 3.553137 1_555
Bi11_0 Bi7_0 3.556130 1_555
Bi11_0 I3_0 3.561430 1_555
Bi11_0 Bi14_4 3.569332 1_555
Bi11_0 Bi14_0 3.572247 1_555
Bi11_0 Bi6_4 3.784318 1_555
Bi11_0 Bi6_0 3.787128 1_555
Bi11_1 Ni3_5 2.722118 1_555
Bi11_1 Ni11_1 2.725501 1_555
Bi11_1 Ni3_1 2.725650 1_555
Bi11_1 Ni6_1 2.754950 1_555
Bi11_1 Bi7_5 3.553137 1_555
Bi11_1 Bi7_1 3.556130 1_555
Bi11_1 I3_1 3.561430 1_555
Bi11_1 Bi14_5 3.569332 1_555
Bi11_1 Bi14_1 3.572247 1_555
Bi11_1 Bi6_5 3.784318 1_555
Bi11_1 Bi6_1 3.787128 1_555
Bi11_2 Ni3_6 2.722118 1_555
Bi11_2 Ni11_2 2.725501 1_555
Bi11_2 Ni3_2 2.725650 1_555
Bi11_2 Ni6_2 2.754950 1_555
Bi11_2 Bi7_6 3.553137 1_555
Bi11_2 Bi7_2 3.556130 1_555
Bi11_2 I3_2 3.561430 1_555
Bi11_2 Bi14_6 3.569332 1_555
Bi11_2 Bi14_2 3.572247 1_555
Bi11_2 Bi6_6 3.784318 1_555
Bi11_2 Bi6_2 3.787128 1_555
Bi11_3 Ni3_7 2.722118 1_555
Bi11_3 Ni11_3 2.725501 1_555
Bi11_3 Ni3_3 2.725650 1_555
Bi11_3 Ni6_3 2.754950 1_555
Bi11_3 Bi7_7 3.553137 1_555
Bi11_3 Bi7_3 3.556130 1_555
Bi11_3 I3_3 3.561430 1_555
Bi11_3 Bi14_7 3.569332 1_555
Bi11_3 Bi14_3 3.572247 1_555
Bi11_3 Bi6_7 3.784318 1_555
Bi11_3 Bi6_3 3.787128 1_555
Bi11_4 Ni3_0 2.722118 1_655
Bi11_4 Ni11_4 2.725501 1_555
Bi11_4 Ni3_4 2.725650 1_555
Bi11_4 Ni6_4 2.754950 1_555
Bi11_4 Bi7_0 3.553137 1_655
Bi11_4 Bi7_4 3.556130 1_555
Bi11_4 I3_4 3.561430 1_555
Bi11_4 Bi14_0 3.569332 1_655
Bi11_4 Bi14_4 3.572247 1_555
Bi11_4 Bi6_0 3.784318 1_655
Bi11_4 Bi6_4 3.787128 1_555
Bi11_5 Ni3_1 2.722118 1_655
Bi11_5 Ni11_5 2.725501 1_555
Bi11_5 Ni3_5 2.725650 1_555
Bi11_5 Ni6_5 2.754950 1_555
Bi11_5 Bi7_1 3.553137 1_655
Bi11_5 Bi7_5 3.556130 1_555
Bi11_5 I3_5 3.561430 1_555
Bi11_5 Bi14_1 3.569332 1_655
Bi11_5 Bi14_5 3.572247 1_555
Bi11_5 Bi6_1 3.784318 1_655
Bi11_5 Bi6_5 3.787128 1_555
Bi11_6 Ni3_2 2.722118 1_655
Bi11_6 Ni11_6 2.725501 1_555
Bi11_6 Ni3_6 2.725650 1_555
Bi11_6 Ni6_6 2.754950 1_555
Bi11_6 Bi7_2 3.553137 1_655
Bi11_6 Bi7_6 3.556130 1_555
Bi11_6 I3_6 3.561430 1_555
Bi11_6 Bi14_2 3.569332 1_655
Bi11_6 Bi14_6 3.572247 1_555
Bi11_6 Bi6_2 3.784318 1_655
Bi11_6 Bi6_6 3.787128 1_555
Bi11_7 Ni3_3 2.722118 1_655
Bi11_7 Ni11_7 2.725501 1_555
Bi11_7 Ni3_7 2.725650 1_555
Bi11_7 Ni6_7 2.754950 1_555
Bi11_7 Bi7_3 3.553137 1_655
Bi11_7 Bi7_7 3.556130 1_555
Bi11_7 I3_7 3.561430 1_555
Bi11_7 Bi14_3 3.569332 1_655
Bi11_7 Bi14_7 3.572247 1_555
Bi11_7 Bi6_3 3.784318 1_655
Bi11_7 Bi6_7 3.787128 1_555
Bi12_0 Ni4_4 2.724195 1_555
Bi12_0 Ni4_0 2.727462 1_555
Bi12_0 Ni1_0 2.751023 1_555
Bi12_0 Ni12_0 2.753259 1_555
Bi12_0 I3_0 3.512530 1_555
Bi12_0 Bi9_4 3.569332 1_555
Bi12_0 Bi9_0 3.572247 1_555
Bi12_0 I1_4 3.972230 1_555
Bi12_0 I1_0 3.974308 1_555
Bi12_1 Ni4_5 2.724195 1_555
Bi12_1 Ni4_1 2.727462 1_555
Bi12_1 Ni1_1 2.751023 1_555
Bi12_1 Ni12_1 2.753259 1_555
Bi12_1 I3_1 3.512530 1_555
Bi12_1 Bi9_5 3.569332 1_555
Bi12_1 Bi9_1 3.572247 1_555
Bi12_1 I1_5 3.972230 1_555
Bi12_1 I1_1 3.974308 1_555
Bi12_2 Ni4_6 2.724195 1_555
Bi12_2 Ni4_2 2.727462 1_555
Bi12_2 Ni1_2 2.751023 1_555
Bi12_2 Ni12_2 2.753259 1_555
Bi12_2 I3_2 3.512530 1_555
Bi12_2 Bi9_6 3.569332 1_555
Bi12_2 Bi9_2 3.572247 1_555
Bi12_2 I1_6 3.972230 1_555
Bi12_2 I1_2 3.974308 1_555
Bi12_3 Ni4_7 2.724195 1_555
Bi12_3 Ni4_3 2.727462 1_555
Bi12_3 Ni1_3 2.751023 1_555
Bi12_3 Ni12_3 2.753259 1_555
Bi12_3 I3_3 3.512530 1_555
Bi12_3 Bi9_7 3.569332 1_555
Bi12_3 Bi9_3 3.572247 1_555
Bi12_3 I1_7 3.972230 1_555
Bi12_3 I1_3 3.974308 1_555
Bi12_4 Ni4_0 2.724195 1_655
Bi12_4 Ni4_4 2.727462 1_555
Bi12_4 Ni1_4 2.751023 1_555
Bi12_4 Ni12_4 2.753259 1_555
Bi12_4 I3_4 3.512530 1_555
Bi12_4 Bi9_0 3.569332 1_655
Bi12_4 Bi9_4 3.572247 1_555
Bi12_4 I1_0 3.972230 1_655
Bi12_4 I1_4 3.974308 1_555
Bi12_5 Ni4_1 2.724195 1_655
Bi12_5 Ni4_5 2.727462 1_555
Bi12_5 Ni1_5 2.751023 1_555
Bi12_5 Ni12_5 2.753259 1_555
Bi12_5 I3_5 3.512530 1_555
Bi12_5 Bi9_1 3.569332 1_655
Bi12_5 Bi9_5 3.572247 1_555
Bi12_5 I1_1 3.972230 1_655
Bi12_5 I1_5 3.974308 1_555
Bi12_6 Ni4_2 2.724195 1_655
Bi12_6 Ni4_6 2.727462 1_555
Bi12_6 Ni1_6 2.751023 1_555
Bi12_6 Ni12_6 2.753259 1_555
Bi12_6 I3_6 3.512530 1_555
Bi12_6 Bi9_2 3.569332 1_655
Bi12_6 Bi9_6 3.572247 1_555
Bi12_6 I1_2 3.972230 1_655
Bi12_6 I1_6 3.974308 1_555
Bi12_7 Ni4_3 2.724195 1_655
Bi12_7 Ni4_7 2.727462 1_555
Bi12_7 Ni1_7 2.751023 1_555
Bi12_7 Ni12_7 2.753259 1_555
Bi12_7 I3_7 3.512530 1_555
Bi12_7 Bi9_3 3.569332 1_655
Bi12_7 Bi9_7 3.572247 1_555
Bi12_7 I1_3 3.972230 1_655
Bi12_7 I1_7 3.974308 1_555
Bi13_0 Ni5_4 2.724195 1_555
Bi13_0 Ni5_0 2.727462 1_555
Bi13_0 Ni0_0 2.751023 1_555
Bi13_0 Ni13_0 2.753259 1_555
Bi13_0 I2_0 3.512530 1_555
Bi13_0 Bi8_4 3.569332 1_555
Bi13_0 Bi8_0 3.572247 1_555
Bi13_0 Bi1_4 3.597661 1_555
Bi13_0 Bi1_0 3.600651 1_555
Bi13_0 I0_4 3.972230 1_555
Bi13_0 I0_0 3.974308 1_555
Bi13_1 Ni5_5 2.724195 1_555
Bi13_1 Ni5_1 2.727462 1_555
Bi13_1 Ni0_1 2.751023 1_555
Bi13_1 Ni13_1 2.753259 1_555
Bi13_1 I2_1 3.512530 1_555
Bi13_1 Bi8_5 3.569332 1_555
Bi13_1 Bi8_1 3.572247 1_555
Bi13_1 Bi1_5 3.597661 1_555
Bi13_1 Bi1_1 3.600651 1_555
Bi13_1 I0_5 3.972230 1_555
Bi13_1 I0_1 3.974308 1_555
Bi13_2 Ni5_6 2.724195 1_555
Bi13_2 Ni5_2 2.727462 1_555
Bi13_2 Ni0_2 2.751023 1_555
Bi13_2 Ni13_2 2.753259 1_555
Bi13_2 I2_2 3.512530 1_555
Bi13_2 Bi8_6 3.569332 1_555
Bi13_2 Bi8_2 3.572247 1_555
Bi13_2 Bi1_6 3.597661 1_555
Bi13_2 Bi1_2 3.600651 1_555
Bi13_2 I0_6 3.972230 1_555
Bi13_2 I0_2 3.974308 1_555
Bi13_3 Ni5_7 2.724195 1_555
Bi13_3 Ni5_3 2.727462 1_555
Bi13_3 Ni0_3 2.751023 1_555
Bi13_3 Ni13_3 2.753259 1_555
Bi13_3 I2_3 3.512530 1_555
Bi13_3 Bi8_7 3.569332 1_555
Bi13_3 Bi8_3 3.572247 1_555
Bi13_3 Bi1_7 3.597661 1_555
Bi13_3 Bi1_3 3.600651 1_555
Bi13_3 I0_7 3.972230 1_555
Bi13_3 I0_3 3.974308 1_555
Bi13_4 Ni5_0 2.724195 1_655
Bi13_4 Ni5_4 2.727462 1_555
Bi13_4 Ni0_4 2.751023 1_555
Bi13_4 Ni13_4 2.753259 1_555
Bi13_4 I2_4 3.512530 1_555
Bi13_4 Bi8_0 3.569332 1_655
Bi13_4 Bi8_4 3.572247 1_555
Bi13_4 Bi1_0 3.597661 1_655
Bi13_4 Bi1_4 3.600651 1_555
Bi13_4 I0_0 3.972230 1_655
Bi13_4 I0_4 3.974308 1_555
Bi13_5 Ni5_1 2.724195 1_655
Bi13_5 Ni5_5 2.727462 1_555
Bi13_5 Ni0_5 2.751023 1_555
Bi13_5 Ni13_5 2.753259 1_555
Bi13_5 I2_5 3.512530 1_555
Bi13_5 Bi8_1 3.569332 1_655
Bi13_5 Bi8_5 3.572247 1_555
Bi13_5 Bi1_1 3.597661 1_655
Bi13_5 Bi1_5 3.600651 1_555
Bi13_5 I0_1 3.972230 1_655
Bi13_5 I0_5 3.974308 1_555
Bi13_6 Ni5_2 2.724195 1_655
Bi13_6 Ni5_6 2.727462 1_555
Bi13_6 Ni0_6 2.751023 1_555
Bi13_6 Ni13_6 2.753259 1_555
Bi13_6 I2_6 3.512530 1_555
Bi13_6 Bi8_2 3.569332 1_655
Bi13_6 Bi8_6 3.572247 1_555
Bi13_6 Bi1_2 3.597661 1_655
Bi13_6 Bi1_6 3.600651 1_555
Bi13_6 I0_2 3.972230 1_655
Bi13_6 I0_6 3.974308 1_555
Bi13_7 Ni5_3 2.724195 1_655
Bi13_7 Ni5_7 2.727462 1_555
Bi13_7 Ni0_7 2.751023 1_555
Bi13_7 Ni13_7 2.753259 1_555
Bi13_7 I2_7 3.512530 1_555
Bi13_7 Bi8_3 3.569332 1_655
Bi13_7 Bi8_7 3.572247 1_555
Bi13_7 Bi1_3 3.597661 1_655
Bi13_7 Bi1_7 3.600651 1_555
Bi13_7 I0_3 3.972230 1_655
Bi13_7 I0_7 3.974308 1_555
Bi14_0 Ni6_4 2.724195 1_455
Bi14_0 Ni6_0 2.727462 1_555
Bi14_0 Ni3_0 2.751023 1_555
Bi14_0 Ni14_2 2.753259 1_545
Bi14_0 I1_2 3.512530 1_545
Bi14_0 Bi2_6 3.597661 1_445
Bi14_0 Bi2_2 3.600651 1_545
Bi14_0 I3_4 3.972230 1_455
Bi14_0 I3_0 3.974308 1_555
Bi14_1 Ni6_5 2.724195 1_455
Bi14_1 Ni6_1 2.727462 1_555
Bi14_1 Ni3_1 2.751023 1_555
Bi14_1 Ni14_3 2.753259 1_545
Bi14_1 I1_3 3.512530 1_545
Bi14_1 Bi2_7 3.597661 1_445
Bi14_1 Bi2_3 3.600651 1_545
Bi14_1 I3_5 3.972230 1_455
Bi14_1 I3_1 3.974308 1_555
Bi14_2 Ni6_6 2.724195 1_455
Bi14_2 Ni6_2 2.727462 1_555
Bi14_2 Ni3_2 2.751023 1_555
Bi14_2 Ni14_0 2.753259 1_555
Bi14_2 I1_0 3.512530 1_555
Bi14_2 Bi2_4 3.597661 1_455
Bi14_2 Bi2_0 3.600651 1_555
Bi14_2 I3_6 3.972230 1_455
Bi14_2 I3_2 3.974308 1_555
Bi14_3 Ni6_7 2.724195 1_455
Bi14_3 Ni6_3 2.727462 1_555
Bi14_3 Ni3_3 2.751023 1_555
Bi14_3 Ni14_1 2.753259 1_555
Bi14_3 I1_1 3.512530 1_555
Bi14_3 Bi2_5 3.597661 1_455
Bi14_3 Bi2_1 3.600651 1_555
Bi14_3 I3_7 3.972230 1_455
Bi14_3 I3_3 3.974308 1_555
Bi14_4 Ni6_0 2.724195 1_555
Bi14_4 Ni6_4 2.727462 1_555
Bi14_4 Ni3_4 2.751023 1_555
Bi14_4 Ni14_6 2.753259 1_545
Bi14_4 I1_6 3.512530 1_545
Bi14_4 Bi2_2 3.597661 1_545
Bi14_4 Bi2_6 3.600651 1_545
Bi14_4 I3_0 3.972230 1_555
Bi14_4 I3_4 3.974308 1_555
Bi14_5 Ni6_1 2.724195 1_555
Bi14_5 Ni6_5 2.727462 1_555
Bi14_5 Ni3_5 2.751023 1_555
Bi14_5 Ni14_7 2.753259 1_545
Bi14_5 I1_7 3.512530 1_545
Bi14_5 Bi2_3 3.597661 1_545
Bi14_5 Bi2_7 3.600651 1_545
Bi14_5 I3_1 3.972230 1_555
Bi14_5 I3_5 3.974308 1_555
Bi14_6 Ni6_2 2.724195 1_555
Bi14_6 Ni6_6 2.727462 1_555
Bi14_6 Ni3_6 2.751023 1_555
Bi14_6 Ni14_4 2.753259 1_555
Bi14_6 I1_4 3.512530 1_555
Bi14_6 Bi2_0 3.597661 1_555
Bi14_6 Bi2_4 3.600651 1_555
Bi14_6 I3_2 3.972230 1_555
Bi14_6 I3_6 3.974308 1_555
Bi14_7 Ni6_3 2.724195 1_555
Bi14_7 Ni6_7 2.727462 1_555
Bi14_7 Ni3_7 2.751023 1_555
Bi14_7 Ni14_5 2.753259 1_555
Bi14_7 I1_5 3.512530 1_555
Bi14_7 Bi2_1 3.597661 1_555
Bi14_7 Bi2_5 3.600651 1_555
Bi14_7 I3_3 3.972230 1_555
Bi14_7 I3_7 3.974308 1_555
Bi15_0 Ni7_4 2.724195 1_455
Bi15_0 Ni7_0 2.727462 1_555
Bi15_0 Ni2_0 2.751023 1_555
Bi15_0 Ni15_2 2.753259 1_555
Bi15_0 I0_2 3.512530 1_555
Bi15_0 Bi3_6 3.597661 1_455
Bi15_0 Bi3_2 3.600651 1_555
Bi15_0 I2_4 3.972230 1_455
Bi15_0 I2_0 3.974308 1_555
Bi15_1 Ni7_5 2.724195 1_455
Bi15_1 Ni7_1 2.727462 1_555
Bi15_1 Ni2_1 2.751023 1_555
Bi15_1 Ni15_3 2.753259 1_555
Bi15_1 I0_3 3.512530 1_555
Bi15_1 Bi3_7 3.597661 1_455
Bi15_1 Bi3_3 3.600651 1_555
Bi15_1 I2_5 3.972230 1_455
Bi15_1 I2_1 3.974308 1_555
Bi15_2 Ni7_6 2.724195 1_455
Bi15_2 Ni7_2 2.727462 1_555
Bi15_2 Ni2_2 2.751023 1_555
Bi15_2 Ni15_0 2.753259 1_565
Bi15_2 I0_0 3.512530 1_565
Bi15_2 Bi3_4 3.597661 1_465
Bi15_2 Bi3_0 3.600651 1_565
Bi15_2 I2_6 3.972230 1_455
Bi15_2 I2_2 3.974308 1_555
Bi15_3 Ni7_7 2.724195 1_455
Bi15_3 Ni7_3 2.727462 1_555
Bi15_3 Ni2_3 2.751023 1_555
Bi15_3 Ni15_1 2.753259 1_565
Bi15_3 I0_1 3.512530 1_565
Bi15_3 Bi3_5 3.597661 1_465
Bi15_3 Bi3_1 3.600651 1_565
Bi15_3 I2_7 3.972230 1_455
Bi15_3 I2_3 3.974308 1_555
Bi15_4 Ni7_0 2.724195 1_555
Bi15_4 Ni7_4 2.727462 1_555
Bi15_4 Ni2_4 2.751023 1_555
Bi15_4 Ni15_6 2.753259 1_555
Bi15_4 I0_6 3.512530 1_555
Bi15_4 Bi3_2 3.597661 1_555
Bi15_4 Bi3_6 3.600651 1_555
Bi15_4 I2_0 3.972230 1_555
Bi15_4 I2_4 3.974308 1_555
Bi15_5 Ni7_1 2.724195 1_555
Bi15_5 Ni7_5 2.727462 1_555
Bi15_5 Ni2_5 2.751023 1_555
Bi15_5 Ni15_7 2.753259 1_555
Bi15_5 I0_7 3.512530 1_555
Bi15_5 Bi3_3 3.597661 1_555
Bi15_5 Bi3_7 3.600651 1_555
Bi15_5 I2_1 3.972230 1_555
Bi15_5 I2_5 3.974308 1_555
Bi15_6 Ni7_2 2.724195 1_555
Bi15_6 Ni7_6 2.727462 1_555
Bi15_6 Ni2_6 2.751023 1_555
Bi15_6 Ni15_4 2.753259 1_565
Bi15_6 I0_4 3.512530 1_565
Bi15_6 Bi3_0 3.597661 1_565
Bi15_6 Bi3_4 3.600651 1_565
Bi15_6 I2_2 3.972230 1_555
Bi15_6 I2_6 3.974308 1_555
Bi15_7 Ni7_3 2.724195 1_555
Bi15_7 Ni7_7 2.727462 1_555
Bi15_7 Ni2_7 2.751023 1_555
Bi15_7 Ni15_5 2.753259 1_565
Bi15_7 I0_5 3.512530 1_565
Bi15_7 Bi3_1 3.597661 1_565
Bi15_7 Bi3_5 3.600651 1_565
Bi15_7 I2_3 3.972230 1_555
Bi15_7 I2_7 3.974308 1_555
I0_0 I0_4 4.182837 1_455
I0_0 I0_4 4.182837 1_555
I0_1 I0_5 4.182837 1_555
I0_1 I0_5 4.182837 1_455
I0_2 I0_6 4.182837 1_555
I0_2 I0_6 4.182837 1_455
I0_3 I0_7 4.182837 1_555
I0_3 I0_7 4.182837 1_455
I1_0 I1_4 4.182837 1_555
I1_0 I1_4 4.182837 1_455
I1_1 I1_5 4.182837 1_555
I1_1 I1_5 4.182837 1_455
I1_2 I1_6 4.182837 1_455
I1_2 I1_6 4.182837 1_555
I1_3 I1_7 4.182837 1_555
I1_3 I1_7 4.182837 1_455
I2_0 I2_4 4.182837 1_555
I2_0 I2_4 4.182837 1_455
I2_1 I2_5 4.182837 1_555
I2_1 I2_5 4.182837 1_455
I2_2 I2_6 4.182837 1_455
I2_2 I2_6 4.182837 1_555
I2_3 I2_7 4.182837 1_455
I2_3 I2_7 4.182837 1_555
I3_0 I3_4 4.182837 1_555
I3_0 I3_4 4.182837 1_455
I3_1 I3_5 4.182837 1_555
I3_1 I3_5 4.182837 1_455
I3_2 I3_6 4.182837 1_455
I3_2 I3_6 4.182837 1_555
I3_3 I3_7 4.182837 1_555
I3_3 I3_7 4.182837 1_455
