# generated using pymatgen
data_TlCu4Se3
_symmetry_space_group_name_H-M   'P 1'
_cell_length_a   7.88963200
_cell_length_b   25.08633400
_cell_length_c   25.85486600
_cell_angle_alpha   90.00000000
_cell_angle_beta   90.00000000
_cell_angle_gamma   90.00000000
_symmetry_Int_Tables_number   1
_chemical_formula_structural   TlCu4Se3
_chemical_formula_sum   'Tl32 Cu128 Se96'
_cell_volume   5117.24532737
_cell_formula_units_Z   32
loop_
 _symmetry_equiv_pos_site_id
 _symmetry_equiv_pos_as_xyz
  1  'x, y, z'
loop_
 _atom_site_type_symbol
 _atom_site_label
 _atom_site_symmetry_multiplicity
 _atom_site_fract_x
 _atom_site_fract_y
 _atom_site_fract_z
 _atom_site_occupancy
  Tl  Tl0_0  1  0.00000000  0.19727450  0.18605550  1
  Tl  Tl0_1  1  0.00000000  0.19727450  0.68605550  1
  Tl  Tl0_2  1  0.00000000  0.69727450  0.18605550  1
  Tl  Tl0_3  1  0.00000000  0.69727450  0.68605550  1
  Tl  Tl0_4  1  0.50000000  0.19727450  0.18605550  1
  Tl  Tl0_5  1  0.50000000  0.19727450  0.68605550  1
  Tl  Tl0_6  1  0.50000000  0.69727450  0.18605550  1
  Tl  Tl0_7  1  0.50000000  0.69727450  0.68605550  1
  Tl  Tl1_0  1  0.00000000  0.30272550  0.31394450  1
  Tl  Tl1_1  1  0.00000000  0.30272550  0.81394450  1
  Tl  Tl1_2  1  0.00000000  0.80272550  0.31394450  1
  Tl  Tl1_3  1  0.00000000  0.80272550  0.81394450  1
  Tl  Tl1_4  1  0.50000000  0.30272550  0.31394450  1
  Tl  Tl1_5  1  0.50000000  0.30272550  0.81394450  1
  Tl  Tl1_6  1  0.50000000  0.80272550  0.31394450  1
  Tl  Tl1_7  1  0.50000000  0.80272550  0.81394450  1
  Tl  Tl2_0  1  0.25000000  0.05272550  0.43605550  1
  Tl  Tl2_1  1  0.25000000  0.05272550  0.93605550  1
  Tl  Tl2_2  1  0.25000000  0.55272550  0.43605550  1
  Tl  Tl2_3  1  0.25000000  0.55272550  0.93605550  1
  Tl  Tl2_4  1  0.75000000  0.05272550  0.43605550  1
  Tl  Tl2_5  1  0.75000000  0.05272550  0.93605550  1
  Tl  Tl2_6  1  0.75000000  0.55272550  0.43605550  1
  Tl  Tl2_7  1  0.75000000  0.55272550  0.93605550  1
  Tl  Tl3_0  1  0.25000000  0.44727450  0.06394450  1
  Tl  Tl3_1  1  0.25000000  0.44727450  0.56394450  1
  Tl  Tl3_2  1  0.25000000  0.94727450  0.06394450  1
  Tl  Tl3_3  1  0.25000000  0.94727450  0.56394450  1
  Tl  Tl3_4  1  0.75000000  0.44727450  0.06394450  1
  Tl  Tl3_5  1  0.75000000  0.44727450  0.56394450  1
  Tl  Tl3_6  1  0.75000000  0.94727450  0.06394450  1
  Tl  Tl3_7  1  0.75000000  0.94727450  0.56394450  1
  Cu  Cu0_0  1  0.00000000  0.04829700  0.23000300  1
  Cu  Cu0_1  1  0.00000000  0.04829700  0.73000300  1
  Cu  Cu0_2  1  0.00000000  0.54829700  0.23000300  1
  Cu  Cu0_3  1  0.00000000  0.54829700  0.73000300  1
  Cu  Cu0_4  1  0.50000000  0.04829700  0.23000300  1
  Cu  Cu0_5  1  0.50000000  0.04829700  0.73000300  1
  Cu  Cu0_6  1  0.50000000  0.54829700  0.23000300  1
  Cu  Cu0_7  1  0.50000000  0.54829700  0.73000300  1
  Cu  Cu1_0  1  0.00000000  0.45170300  0.26999700  1
  Cu  Cu1_1  1  0.00000000  0.45170300  0.76999700  1
  Cu  Cu1_2  1  0.00000000  0.95170300  0.26999700  1
  Cu  Cu1_3  1  0.00000000  0.95170300  0.76999700  1
  Cu  Cu1_4  1  0.50000000  0.45170300  0.26999700  1
  Cu  Cu1_5  1  0.50000000  0.45170300  0.76999700  1
  Cu  Cu1_6  1  0.50000000  0.95170300  0.26999700  1
  Cu  Cu1_7  1  0.50000000  0.95170300  0.76999700  1
  Cu  Cu2_0  1  0.25000000  0.20170300  0.48000300  1
  Cu  Cu2_1  1  0.25000000  0.20170300  0.98000300  1
  Cu  Cu2_2  1  0.25000000  0.70170300  0.48000300  1
  Cu  Cu2_3  1  0.25000000  0.70170300  0.98000300  1
  Cu  Cu2_4  1  0.75000000  0.20170300  0.48000300  1
  Cu  Cu2_5  1  0.75000000  0.20170300  0.98000300  1
  Cu  Cu2_6  1  0.75000000  0.70170300  0.48000300  1
  Cu  Cu2_7  1  0.75000000  0.70170300  0.98000300  1
  Cu  Cu3_0  1  0.25000000  0.29829700  0.01999700  1
  Cu  Cu3_1  1  0.25000000  0.29829700  0.51999700  1
  Cu  Cu3_2  1  0.25000000  0.79829700  0.01999700  1
  Cu  Cu3_3  1  0.25000000  0.79829700  0.51999700  1
  Cu  Cu3_4  1  0.75000000  0.29829700  0.01999700  1
  Cu  Cu3_5  1  0.75000000  0.29829700  0.51999700  1
  Cu  Cu3_6  1  0.75000000  0.79829700  0.01999700  1
  Cu  Cu3_7  1  0.75000000  0.79829700  0.51999700  1
  Cu  Cu4_0  1  0.00000000  0.04289250  0.13475250  1
  Cu  Cu4_1  1  0.00000000  0.04289250  0.63475250  1
  Cu  Cu4_2  1  0.00000000  0.54289250  0.13475250  1
  Cu  Cu4_3  1  0.00000000  0.54289250  0.63475250  1
  Cu  Cu4_4  1  0.50000000  0.04289250  0.13475250  1
  Cu  Cu4_5  1  0.50000000  0.04289250  0.63475250  1
  Cu  Cu4_6  1  0.50000000  0.54289250  0.13475250  1
  Cu  Cu4_7  1  0.50000000  0.54289250  0.63475250  1
  Cu  Cu5_0  1  0.00000000  0.45710750  0.36524750  1
  Cu  Cu5_1  1  0.00000000  0.45710750  0.86524750  1
  Cu  Cu5_2  1  0.00000000  0.95710750  0.36524750  1
  Cu  Cu5_3  1  0.00000000  0.95710750  0.86524750  1
  Cu  Cu5_4  1  0.50000000  0.45710750  0.36524750  1
  Cu  Cu5_5  1  0.50000000  0.45710750  0.86524750  1
  Cu  Cu5_6  1  0.50000000  0.95710750  0.36524750  1
  Cu  Cu5_7  1  0.50000000  0.95710750  0.86524750  1
  Cu  Cu6_0  1  0.25000000  0.20710750  0.38475250  1
  Cu  Cu6_1  1  0.25000000  0.20710750  0.88475250  1
  Cu  Cu6_2  1  0.25000000  0.70710750  0.38475250  1
  Cu  Cu6_3  1  0.25000000  0.70710750  0.88475250  1
  Cu  Cu6_4  1  0.75000000  0.20710750  0.38475250  1
  Cu  Cu6_5  1  0.75000000  0.20710750  0.88475250  1
  Cu  Cu6_6  1  0.75000000  0.70710750  0.38475250  1
  Cu  Cu6_7  1  0.75000000  0.70710750  0.88475250  1
  Cu  Cu7_0  1  0.25000000  0.29289250  0.11524750  1
  Cu  Cu7_1  1  0.25000000  0.29289250  0.61524750  1
  Cu  Cu7_2  1  0.25000000  0.79289250  0.11524750  1
  Cu  Cu7_3  1  0.25000000  0.79289250  0.61524750  1
  Cu  Cu7_4  1  0.75000000  0.29289250  0.11524750  1
  Cu  Cu7_5  1  0.75000000  0.29289250  0.61524750  1
  Cu  Cu7_6  1  0.75000000  0.79289250  0.11524750  1
  Cu  Cu7_7  1  0.75000000  0.79289250  0.61524750  1
  Cu  Cu8_0  1  0.00000000  0.15774100  0.03972150  1
  Cu  Cu8_1  1  0.00000000  0.15774100  0.53972150  1
  Cu  Cu8_2  1  0.00000000  0.65774100  0.03972150  1
  Cu  Cu8_3  1  0.00000000  0.65774100  0.53972150  1
  Cu  Cu8_4  1  0.50000000  0.15774100  0.03972150  1
  Cu  Cu8_5  1  0.50000000  0.15774100  0.53972150  1
  Cu  Cu8_6  1  0.50000000  0.65774100  0.03972150  1
  Cu  Cu8_7  1  0.50000000  0.65774100  0.53972150  1
  Cu  Cu9_0  1  0.00000000  0.34225900  0.46027850  1
  Cu  Cu9_1  1  0.00000000  0.34225900  0.96027850  1
  Cu  Cu9_2  1  0.00000000  0.84225900  0.46027850  1
  Cu  Cu9_3  1  0.00000000  0.84225900  0.96027850  1
  Cu  Cu9_4  1  0.50000000  0.34225900  0.46027850  1
  Cu  Cu9_5  1  0.50000000  0.34225900  0.96027850  1
  Cu  Cu9_6  1  0.50000000  0.84225900  0.46027850  1
  Cu  Cu9_7  1  0.50000000  0.84225900  0.96027850  1
  Cu  Cu10_0  1  0.25000000  0.09225900  0.28972150  1
  Cu  Cu10_1  1  0.25000000  0.09225900  0.78972150  1
  Cu  Cu10_2  1  0.25000000  0.59225900  0.28972150  1
  Cu  Cu10_3  1  0.25000000  0.59225900  0.78972150  1
  Cu  Cu10_4  1  0.75000000  0.09225900  0.28972150  1
  Cu  Cu10_5  1  0.75000000  0.09225900  0.78972150  1
  Cu  Cu10_6  1  0.75000000  0.59225900  0.28972150  1
  Cu  Cu10_7  1  0.75000000  0.59225900  0.78972150  1
  Cu  Cu11_0  1  0.25000000  0.40774100  0.21027850  1
  Cu  Cu11_1  1  0.25000000  0.40774100  0.71027850  1
  Cu  Cu11_2  1  0.25000000  0.90774100  0.21027850  1
  Cu  Cu11_3  1  0.25000000  0.90774100  0.71027850  1
  Cu  Cu11_4  1  0.75000000  0.40774100  0.21027850  1
  Cu  Cu11_5  1  0.75000000  0.40774100  0.71027850  1
  Cu  Cu11_6  1  0.75000000  0.90774100  0.21027850  1
  Cu  Cu11_7  1  0.75000000  0.90774100  0.71027850  1
  Cu  Cu12_0  1  0.00000000  0.15248100  0.33694450  1
  Cu  Cu12_1  1  0.00000000  0.15248100  0.83694450  1
  Cu  Cu12_2  1  0.00000000  0.65248100  0.33694450  1
  Cu  Cu12_3  1  0.00000000  0.65248100  0.83694450  1
  Cu  Cu12_4  1  0.50000000  0.15248100  0.33694450  1
  Cu  Cu12_5  1  0.50000000  0.15248100  0.83694450  1
  Cu  Cu12_6  1  0.50000000  0.65248100  0.33694450  1
  Cu  Cu12_7  1  0.50000000  0.65248100  0.83694450  1
  Cu  Cu13_0  1  0.00000000  0.34751900  0.16305550  1
  Cu  Cu13_1  1  0.00000000  0.34751900  0.66305550  1
  Cu  Cu13_2  1  0.00000000  0.84751900  0.16305550  1
  Cu  Cu13_3  1  0.00000000  0.84751900  0.66305550  1
  Cu  Cu13_4  1  0.50000000  0.34751900  0.16305550  1
  Cu  Cu13_5  1  0.50000000  0.34751900  0.66305550  1
  Cu  Cu13_6  1  0.50000000  0.84751900  0.16305550  1
  Cu  Cu13_7  1  0.50000000  0.84751900  0.66305550  1
  Cu  Cu14_0  1  0.25000000  0.09751900  0.08694450  1
  Cu  Cu14_1  1  0.25000000  0.09751900  0.58694450  1
  Cu  Cu14_2  1  0.25000000  0.59751900  0.08694450  1
  Cu  Cu14_3  1  0.25000000  0.59751900  0.58694450  1
  Cu  Cu14_4  1  0.75000000  0.09751900  0.08694450  1
  Cu  Cu14_5  1  0.75000000  0.09751900  0.58694450  1
  Cu  Cu14_6  1  0.75000000  0.59751900  0.08694450  1
  Cu  Cu14_7  1  0.75000000  0.59751900  0.58694450  1
  Cu  Cu15_0  1  0.25000000  0.40248100  0.41305550  1
  Cu  Cu15_1  1  0.25000000  0.40248100  0.91305550  1
  Cu  Cu15_2  1  0.25000000  0.90248100  0.41305550  1
  Cu  Cu15_3  1  0.25000000  0.90248100  0.91305550  1
  Cu  Cu15_4  1  0.75000000  0.40248100  0.41305550  1
  Cu  Cu15_5  1  0.75000000  0.40248100  0.91305550  1
  Cu  Cu15_6  1  0.75000000  0.90248100  0.41305550  1
  Cu  Cu15_7  1  0.75000000  0.90248100  0.91305550  1
  Se  Se0_0  1  0.00000000  0.05994650  0.04464700  1
  Se  Se0_1  1  0.00000000  0.05994650  0.54464700  1
  Se  Se0_2  1  0.00000000  0.55994650  0.04464700  1
  Se  Se0_3  1  0.00000000  0.55994650  0.54464700  1
  Se  Se0_4  1  0.50000000  0.05994650  0.04464700  1
  Se  Se0_5  1  0.50000000  0.05994650  0.54464700  1
  Se  Se0_6  1  0.50000000  0.55994650  0.04464700  1
  Se  Se0_7  1  0.50000000  0.55994650  0.54464700  1
  Se  Se1_0  1  0.00000000  0.44005350  0.45535300  1
  Se  Se1_1  1  0.00000000  0.44005350  0.95535300  1
  Se  Se1_2  1  0.00000000  0.94005350  0.45535300  1
  Se  Se1_3  1  0.00000000  0.94005350  0.95535300  1
  Se  Se1_4  1  0.50000000  0.44005350  0.45535300  1
  Se  Se1_5  1  0.50000000  0.44005350  0.95535300  1
  Se  Se1_6  1  0.50000000  0.94005350  0.45535300  1
  Se  Se1_7  1  0.50000000  0.94005350  0.95535300  1
  Se  Se2_0  1  0.25000000  0.19005350  0.29464700  1
  Se  Se2_1  1  0.25000000  0.19005350  0.79464700  1
  Se  Se2_2  1  0.25000000  0.69005350  0.29464700  1
  Se  Se2_3  1  0.25000000  0.69005350  0.79464700  1
  Se  Se2_4  1  0.75000000  0.19005350  0.29464700  1
  Se  Se2_5  1  0.75000000  0.19005350  0.79464700  1
  Se  Se2_6  1  0.75000000  0.69005350  0.29464700  1
  Se  Se2_7  1  0.75000000  0.69005350  0.79464700  1
  Se  Se3_0  1  0.25000000  0.30994650  0.20535300  1
  Se  Se3_1  1  0.25000000  0.30994650  0.70535300  1
  Se  Se3_2  1  0.25000000  0.80994650  0.20535300  1
  Se  Se3_3  1  0.25000000  0.80994650  0.70535300  1
  Se  Se3_4  1  0.75000000  0.30994650  0.20535300  1
  Se  Se3_5  1  0.75000000  0.30994650  0.70535300  1
  Se  Se3_6  1  0.75000000  0.80994650  0.20535300  1
  Se  Se3_7  1  0.75000000  0.80994650  0.70535300  1
  Se  Se4_0  1  0.00000000  0.33953600  0.06607250  1
  Se  Se4_1  1  0.00000000  0.33953600  0.56607250  1
  Se  Se4_2  1  0.00000000  0.83953600  0.06607250  1
  Se  Se4_3  1  0.00000000  0.83953600  0.56607250  1
  Se  Se4_4  1  0.50000000  0.33953600  0.06607250  1
  Se  Se4_5  1  0.50000000  0.33953600  0.56607250  1
  Se  Se4_6  1  0.50000000  0.83953600  0.06607250  1
  Se  Se4_7  1  0.50000000  0.83953600  0.56607250  1
  Se  Se5_0  1  0.00000000  0.16046400  0.43392750  1
  Se  Se5_1  1  0.00000000  0.16046400  0.93392750  1
  Se  Se5_2  1  0.00000000  0.66046400  0.43392750  1
  Se  Se5_3  1  0.00000000  0.66046400  0.93392750  1
  Se  Se5_4  1  0.50000000  0.16046400  0.43392750  1
  Se  Se5_5  1  0.50000000  0.16046400  0.93392750  1
  Se  Se5_6  1  0.50000000  0.66046400  0.43392750  1
  Se  Se5_7  1  0.50000000  0.66046400  0.93392750  1
  Se  Se6_0  1  0.25000000  0.41046400  0.31607250  1
  Se  Se6_1  1  0.25000000  0.41046400  0.81607250  1
  Se  Se6_2  1  0.25000000  0.91046400  0.31607250  1
  Se  Se6_3  1  0.25000000  0.91046400  0.81607250  1
  Se  Se6_4  1  0.75000000  0.41046400  0.31607250  1
  Se  Se6_5  1  0.75000000  0.41046400  0.81607250  1
  Se  Se6_6  1  0.75000000  0.91046400  0.31607250  1
  Se  Se6_7  1  0.75000000  0.91046400  0.81607250  1
  Se  Se7_0  1  0.25000000  0.08953600  0.18392750  1
  Se  Se7_1  1  0.25000000  0.08953600  0.68392750  1
  Se  Se7_2  1  0.25000000  0.58953600  0.18392750  1
  Se  Se7_3  1  0.25000000  0.58953600  0.68392750  1
  Se  Se7_4  1  0.75000000  0.08953600  0.18392750  1
  Se  Se7_5  1  0.75000000  0.08953600  0.68392750  1
  Se  Se7_6  1  0.75000000  0.58953600  0.18392750  1
  Se  Se7_7  1  0.75000000  0.58953600  0.68392750  1
  Se  Se8_0  1  0.00000000  0.04636600  0.32186450  1
  Se  Se8_1  1  0.00000000  0.04636600  0.82186450  1
  Se  Se8_2  1  0.00000000  0.54636600  0.32186450  1
  Se  Se8_3  1  0.00000000  0.54636600  0.82186450  1
  Se  Se8_4  1  0.50000000  0.04636600  0.32186450  1
  Se  Se8_5  1  0.50000000  0.04636600  0.82186450  1
  Se  Se8_6  1  0.50000000  0.54636600  0.32186450  1
  Se  Se8_7  1  0.50000000  0.54636600  0.82186450  1
  Se  Se9_0  1  0.00000000  0.45363400  0.17813550  1
  Se  Se9_1  1  0.00000000  0.45363400  0.67813550  1
  Se  Se9_2  1  0.00000000  0.95363400  0.17813550  1
  Se  Se9_3  1  0.00000000  0.95363400  0.67813550  1
  Se  Se9_4  1  0.50000000  0.45363400  0.17813550  1
  Se  Se9_5  1  0.50000000  0.45363400  0.67813550  1
  Se  Se9_6  1  0.50000000  0.95363400  0.17813550  1
  Se  Se9_7  1  0.50000000  0.95363400  0.67813550  1
  Se  Se10_0  1  0.25000000  0.20363400  0.07186450  1
  Se  Se10_1  1  0.25000000  0.20363400  0.57186450  1
  Se  Se10_2  1  0.25000000  0.70363400  0.07186450  1
  Se  Se10_3  1  0.25000000  0.70363400  0.57186450  1
  Se  Se10_4  1  0.75000000  0.20363400  0.07186450  1
  Se  Se10_5  1  0.75000000  0.20363400  0.57186450  1
  Se  Se10_6  1  0.75000000  0.70363400  0.07186450  1
  Se  Se10_7  1  0.75000000  0.70363400  0.57186450  1
  Se  Se11_0  1  0.25000000  0.29636600  0.42813550  1
  Se  Se11_1  1  0.25000000  0.29636600  0.92813550  1
  Se  Se11_2  1  0.25000000  0.79636600  0.42813550  1
  Se  Se11_3  1  0.25000000  0.79636600  0.92813550  1
  Se  Se11_4  1  0.75000000  0.29636600  0.42813550  1
  Se  Se11_5  1  0.75000000  0.29636600  0.92813550  1
  Se  Se11_6  1  0.75000000  0.79636600  0.42813550  1
  Se  Se11_7  1  0.75000000  0.79636600  0.92813550  1
loop_
_geom_bond_atom_site_label_1
_geom_bond_atom_site_label_2
_geom_bond_distance
_geom_bond_site_symmetry_2
Tl0_0 Tl0_4 3.944816 1_555
Tl0_0 Tl0_4 3.944816 1_455
Tl0_1 Tl0_5 3.944816 1_555
Tl0_1 Tl0_5 3.944816 1_455
Tl0_2 Tl0_6 3.944816 1_455
Tl0_2 Tl0_6 3.944816 1_555
Tl0_3 Tl0_7 3.944816 1_555
Tl0_3 Tl0_7 3.944816 1_455
Tl1_0 Tl1_4 3.944816 1_455
Tl1_0 Tl1_4 3.944816 1_555
Tl1_1 Tl1_5 3.944816 1_455
Tl1_1 Tl1_5 3.944816 1_555
Tl1_2 Tl1_6 3.944816 1_555
Tl1_2 Tl1_6 3.944816 1_455
Tl1_3 Tl1_7 3.944816 1_555
Tl1_3 Tl1_7 3.944816 1_455
Tl2_0 Tl2_4 3.944816 1_455
Tl2_0 Tl2_4 3.944816 1_555
Tl2_1 Tl2_5 3.944816 1_555
Tl2_1 Tl2_5 3.944816 1_455
Tl2_2 Tl2_6 3.944816 1_555
Tl2_2 Tl2_6 3.944816 1_455
Tl2_3 Tl2_7 3.944816 1_555
Tl2_3 Tl2_7 3.944816 1_455
Tl3_0 Tl3_4 3.944816 1_555
Tl3_0 Tl3_4 3.944816 1_455
Tl3_1 Tl3_5 3.944816 1_455
Tl3_1 Tl3_5 3.944816 1_555
Tl3_2 Tl3_6 3.944816 1_555
Tl3_2 Tl3_6 3.944816 1_455
Tl3_3 Tl3_7 3.944816 1_455
Tl3_3 Tl3_7 3.944816 1_555
Cu0_0 Se8_0 2.375561 1_555
Cu0_0 Cu4_0 2.466418 1_555
Cu0_0 Se7_4 2.525826 1_455
Cu0_0 Se7_0 2.525826 1_555
Cu0_0 Cu1_2 2.634594 1_545
Cu0_0 Se9_2 2.727229 1_545
Cu0_0 Cu10_4 2.736903 1_455
Cu0_0 Cu10_0 2.736903 1_555
Cu0_1 Se8_1 2.375561 1_555
Cu0_1 Cu4_1 2.466418 1_555
Cu0_1 Se7_1 2.525826 1_555
Cu0_1 Se7_5 2.525826 1_455
Cu0_1 Cu1_3 2.634594 1_545
Cu0_1 Se9_3 2.727229 1_545
Cu0_1 Cu10_1 2.736903 1_555
Cu0_1 Cu10_5 2.736903 1_455
Cu0_2 Se8_2 2.375561 1_555
Cu0_2 Cu4_2 2.466418 1_555
Cu0_2 Se7_2 2.525826 1_555
Cu0_2 Se7_6 2.525826 1_455
Cu0_2 Cu1_0 2.634594 1_555
Cu0_2 Se9_0 2.727229 1_555
Cu0_2 Cu10_2 2.736903 1_555
Cu0_2 Cu10_6 2.736903 1_455
Cu0_3 Se8_3 2.375561 1_555
Cu0_3 Cu4_3 2.466418 1_555
Cu0_3 Se7_7 2.525826 1_455
Cu0_3 Se7_3 2.525826 1_555
Cu0_3 Cu1_1 2.634594 1_555
Cu0_3 Se9_1 2.727229 1_555
Cu0_3 Cu10_3 2.736903 1_555
Cu0_3 Cu10_7 2.736903 1_455
Cu0_4 Se8_4 2.375561 1_555
Cu0_4 Cu4_4 2.466418 1_555
Cu0_4 Se7_0 2.525826 1_555
Cu0_4 Se7_4 2.525826 1_555
Cu0_4 Cu1_6 2.634594 1_545
Cu0_4 Se9_6 2.727229 1_545
Cu0_4 Cu10_0 2.736903 1_555
Cu0_4 Cu10_4 2.736903 1_555
Cu0_5 Se8_5 2.375561 1_555
Cu0_5 Cu4_5 2.466418 1_555
Cu0_5 Se7_1 2.525826 1_555
Cu0_5 Se7_5 2.525826 1_555
Cu0_5 Cu1_7 2.634594 1_545
Cu0_5 Se9_7 2.727229 1_545
Cu0_5 Cu10_1 2.736903 1_555
Cu0_5 Cu10_5 2.736903 1_555
Cu0_6 Se8_6 2.375561 1_555
Cu0_6 Cu4_6 2.466418 1_555
Cu0_6 Se7_6 2.525826 1_555
Cu0_6 Se7_2 2.525826 1_555
Cu0_6 Cu1_4 2.634594 1_555
Cu0_6 Se9_4 2.727229 1_555
Cu0_6 Cu10_2 2.736903 1_555
Cu0_6 Cu10_6 2.736903 1_555
Cu0_7 Se8_7 2.375561 1_555
Cu0_7 Cu4_7 2.466418 1_555
Cu0_7 Se7_7 2.525826 1_555
Cu0_7 Se7_3 2.525826 1_555
Cu0_7 Cu1_5 2.634594 1_555
Cu0_7 Se9_5 2.727229 1_555
Cu0_7 Cu10_3 2.736903 1_555
Cu0_7 Cu10_7 2.736903 1_555
Cu1_0 Se9_0 2.375561 1_555
Cu1_0 Cu5_0 2.466418 1_555
Cu1_0 Se6_4 2.525826 1_455
Cu1_0 Se6_0 2.525826 1_555
Cu1_0 Se8_2 2.727229 1_555
Cu1_1 Se9_1 2.375561 1_555
Cu1_1 Cu5_1 2.466418 1_555
Cu1_1 Se6_5 2.525826 1_455
Cu1_1 Se6_1 2.525826 1_555
Cu1_1 Se8_3 2.727229 1_555
Cu1_2 Se9_2 2.375561 1_555
Cu1_2 Cu5_2 2.466418 1_555
Cu1_2 Se6_6 2.525826 1_455
Cu1_2 Se6_2 2.525826 1_555
Cu1_2 Se8_0 2.727229 1_565
Cu1_3 Se9_3 2.375561 1_555
Cu1_3 Cu5_3 2.466418 1_555
Cu1_3 Se6_3 2.525826 1_555
Cu1_3 Se6_7 2.525826 1_455
Cu1_3 Se8_1 2.727229 1_565
Cu1_4 Se9_4 2.375561 1_555
Cu1_4 Cu5_4 2.466418 1_555
Cu1_4 Se6_4 2.525826 1_555
Cu1_4 Se6_0 2.525826 1_555
Cu1_4 Se8_6 2.727229 1_555
Cu1_5 Se9_5 2.375561 1_555
Cu1_5 Cu5_5 2.466418 1_555
Cu1_5 Se6_1 2.525826 1_555
Cu1_5 Se6_5 2.525826 1_555
Cu1_5 Se8_7 2.727229 1_555
Cu1_6 Se9_6 2.375561 1_555
Cu1_6 Cu5_6 2.466418 1_555
Cu1_6 Se6_6 2.525826 1_555
Cu1_6 Se6_2 2.525826 1_555
Cu1_6 Se8_4 2.727229 1_565
Cu1_7 Se9_7 2.375561 1_555
Cu1_7 Cu5_7 2.466418 1_555
Cu1_7 Se6_7 2.525826 1_555
Cu1_7 Se6_3 2.525826 1_555
Cu1_7 Se8_5 2.727229 1_565
Cu2_0 Se10_1 2.375561 1_555
Cu2_0 Cu6_0 2.466418 1_555
Cu2_0 Se5_0 2.525826 1_555
Cu2_0 Se5_4 2.525826 1_555
Cu2_0 Cu3_1 2.634594 1_555
Cu2_0 Se11_0 2.727229 1_555
Cu2_0 Cu8_1 2.736903 1_555
Cu2_0 Cu8_5 2.736903 1_555
Cu2_1 Se10_0 2.375561 1_556
Cu2_1 Cu6_1 2.466418 1_555
Cu2_1 Se5_1 2.525826 1_555
Cu2_1 Se5_5 2.525826 1_555
Cu2_1 Cu3_0 2.634594 1_556
Cu2_1 Se11_1 2.727229 1_555
Cu2_1 Cu8_0 2.736903 1_556
Cu2_1 Cu8_4 2.736903 1_556
Cu2_2 Se10_3 2.375561 1_555
Cu2_2 Cu6_2 2.466418 1_555
Cu2_2 Se5_2 2.525826 1_555
Cu2_2 Se5_6 2.525826 1_555
Cu2_2 Cu3_3 2.634594 1_555
Cu2_2 Se11_2 2.727229 1_555
Cu2_2 Cu8_7 2.736903 1_555
Cu2_2 Cu8_3 2.736903 1_555
Cu2_3 Se10_2 2.375561 1_556
Cu2_3 Cu6_3 2.466418 1_555
Cu2_3 Se5_3 2.525826 1_555
Cu2_3 Se5_7 2.525826 1_555
Cu2_3 Cu3_2 2.634594 1_556
Cu2_3 Se11_3 2.727229 1_555
Cu2_3 Cu8_2 2.736903 1_556
Cu2_3 Cu8_6 2.736903 1_556
Cu2_4 Se10_5 2.375561 1_555
Cu2_4 Cu6_4 2.466418 1_555
Cu2_4 Se5_4 2.525826 1_555
Cu2_4 Se5_0 2.525826 1_655
Cu2_4 Cu3_5 2.634594 1_555
Cu2_4 Se11_4 2.727229 1_555
Cu2_4 Cu8_1 2.736903 1_655
Cu2_4 Cu8_5 2.736903 1_555
Cu2_5 Se10_4 2.375561 1_556
Cu2_5 Cu6_5 2.466418 1_555
Cu2_5 Se5_5 2.525826 1_555
Cu2_5 Se5_1 2.525826 1_655
Cu2_5 Cu3_4 2.634594 1_556
Cu2_5 Se11_5 2.727229 1_555
Cu2_5 Cu8_0 2.736903 1_656
Cu2_5 Cu8_4 2.736903 1_556
Cu2_6 Se10_7 2.375561 1_555
Cu2_6 Cu6_6 2.466418 1_555
Cu2_6 Se5_2 2.525826 1_655
Cu2_6 Se5_6 2.525826 1_555
Cu2_6 Cu3_7 2.634594 1_555
Cu2_6 Se11_6 2.727229 1_555
Cu2_6 Cu8_3 2.736903 1_655
Cu2_6 Cu8_7 2.736903 1_555
Cu2_7 Se10_6 2.375561 1_556
Cu2_7 Cu6_7 2.466418 1_555
Cu2_7 Se5_3 2.525826 1_655
Cu2_7 Se5_7 2.525826 1_555
Cu2_7 Cu3_6 2.634594 1_556
Cu2_7 Se11_7 2.727229 1_555
Cu2_7 Cu8_6 2.736903 1_556
Cu2_7 Cu8_2 2.736903 1_656
Cu3_0 Se11_1 2.375561 1_554
Cu3_0 Cu7_0 2.466418 1_555
Cu3_0 Se4_0 2.525826 1_555
Cu3_0 Se4_4 2.525826 1_555
Cu3_0 Se10_0 2.727229 1_555
Cu3_0 Cu9_1 2.736903 1_554
Cu3_0 Cu9_5 2.736903 1_554
Cu3_1 Se11_0 2.375561 1_555
Cu3_1 Cu7_1 2.466418 1_555
Cu3_1 Se4_1 2.525826 1_555
Cu3_1 Se4_5 2.525826 1_555
Cu3_1 Se10_1 2.727229 1_555
Cu3_1 Cu9_4 2.736903 1_555
Cu3_1 Cu9_0 2.736903 1_555
Cu3_2 Se11_3 2.375561 1_554
Cu3_2 Cu7_2 2.466418 1_555
Cu3_2 Se4_2 2.525826 1_555
Cu3_2 Se4_6 2.525826 1_555
Cu3_2 Se10_2 2.727229 1_555
Cu3_2 Cu9_7 2.736903 1_554
Cu3_2 Cu9_3 2.736903 1_554
Cu3_3 Se11_2 2.375561 1_555
Cu3_3 Cu7_3 2.466418 1_555
Cu3_3 Se4_3 2.525826 1_555
Cu3_3 Se4_7 2.525826 1_555
Cu3_3 Se10_3 2.727229 1_555
Cu3_3 Cu9_6 2.736903 1_555
Cu3_3 Cu9_2 2.736903 1_555
Cu3_4 Se11_5 2.375561 1_554
Cu3_4 Cu7_4 2.466418 1_555
Cu3_4 Se4_0 2.525826 1_655
Cu3_4 Se4_4 2.525826 1_555
Cu3_4 Se10_4 2.727229 1_555
Cu3_4 Cu9_1 2.736903 1_654
Cu3_4 Cu9_5 2.736903 1_554
Cu3_5 Se11_4 2.375561 1_555
Cu3_5 Cu7_5 2.466418 1_555
Cu3_5 Se4_5 2.525826 1_555
Cu3_5 Se4_1 2.525826 1_655
Cu3_5 Se10_5 2.727229 1_555
Cu3_5 Cu9_0 2.736903 1_655
Cu3_5 Cu9_4 2.736903 1_555
Cu3_6 Se11_7 2.375561 1_554
Cu3_6 Cu7_6 2.466418 1_555
Cu3_6 Se4_2 2.525826 1_655
Cu3_6 Se4_6 2.525826 1_555
Cu3_6 Se10_6 2.727229 1_555
Cu3_6 Cu9_7 2.736903 1_554
Cu3_6 Cu9_3 2.736903 1_654
Cu3_7 Se11_6 2.375561 1_555
Cu3_7 Cu7_7 2.466418 1_555
Cu3_7 Se4_3 2.525826 1_655
Cu3_7 Se4_7 2.525826 1_555
Cu3_7 Se10_7 2.727229 1_555
Cu3_7 Cu9_6 2.736903 1_555
Cu3_7 Cu9_2 2.736903 1_655
Cu4_0 Se0_0 2.368623 1_555
Cu4_0 Se9_2 2.504396 1_545
Cu4_0 Se7_4 2.622223 1_455
Cu4_0 Se7_0 2.622223 1_555
Cu4_0 Tl3_2 3.604963 1_545
Cu4_0 Tl3_6 3.604963 1_445
Cu4_1 Se0_1 2.368623 1_555
Cu4_1 Se9_3 2.504396 1_545
Cu4_1 Se7_1 2.622223 1_555
Cu4_1 Se7_5 2.622223 1_455
Cu4_1 Tl3_3 3.604963 1_545
Cu4_1 Tl3_7 3.604963 1_445
Cu4_2 Se0_2 2.368623 1_555
Cu4_2 Se9_0 2.504396 1_555
Cu4_2 Se7_2 2.622223 1_555
Cu4_2 Se7_6 2.622223 1_455
Cu4_2 Tl3_0 3.604963 1_555
Cu4_2 Tl3_4 3.604963 1_455
Cu4_3 Se0_3 2.368623 1_555
Cu4_3 Se9_1 2.504396 1_555
Cu4_3 Se7_7 2.622223 1_455
Cu4_3 Se7_3 2.622223 1_555
Cu4_3 Tl3_5 3.604963 1_455
Cu4_3 Tl3_1 3.604963 1_555
Cu4_4 Se0_4 2.368623 1_555
Cu4_4 Se9_6 2.504396 1_545
Cu4_4 Se7_0 2.622223 1_555
Cu4_4 Se7_4 2.622223 1_555
Cu4_4 Tl3_2 3.604963 1_545
Cu4_4 Tl3_6 3.604963 1_545
Cu4_5 Se0_5 2.368623 1_555
Cu4_5 Se9_7 2.504396 1_545
Cu4_5 Se7_1 2.622223 1_555
Cu4_5 Se7_5 2.622223 1_555
Cu4_5 Tl3_3 3.604963 1_545
Cu4_5 Tl3_7 3.604963 1_545
Cu4_6 Se0_6 2.368623 1_555
Cu4_6 Se9_4 2.504396 1_555
Cu4_6 Se7_2 2.622223 1_555
Cu4_6 Se7_6 2.622223 1_555
Cu4_6 Tl3_0 3.604963 1_555
Cu4_6 Tl3_4 3.604963 1_555
Cu4_7 Se0_7 2.368623 1_555
Cu4_7 Se9_5 2.504396 1_555
Cu4_7 Se7_7 2.622223 1_555
Cu4_7 Se7_3 2.622223 1_555
Cu4_7 Tl3_1 3.604963 1_555
Cu4_7 Tl3_5 3.604963 1_555
Cu5_0 Se1_0 2.368623 1_555
Cu5_0 Se8_2 2.504396 1_555
Cu5_0 Se6_0 2.622223 1_555
Cu5_0 Se6_4 2.622223 1_455
Cu5_0 Tl2_2 3.604963 1_555
Cu5_0 Tl2_6 3.604963 1_455
Cu5_1 Se1_1 2.368623 1_555
Cu5_1 Se8_3 2.504396 1_555
Cu5_1 Se6_5 2.622223 1_455
Cu5_1 Se6_1 2.622223 1_555
Cu5_1 Tl2_3 3.604963 1_555
Cu5_1 Tl2_7 3.604963 1_455
Cu5_2 Se1_2 2.368623 1_555
Cu5_2 Se8_0 2.504396 1_565
Cu5_2 Se6_6 2.622223 1_455
Cu5_2 Se6_2 2.622223 1_555
Cu5_2 Tl2_0 3.604963 1_565
Cu5_2 Tl2_4 3.604963 1_465
Cu5_3 Se1_3 2.368623 1_555
Cu5_3 Se8_1 2.504396 1_565
Cu5_3 Se6_3 2.622223 1_555
Cu5_3 Se6_7 2.622223 1_455
Cu5_3 Tl2_5 3.604963 1_465
Cu5_3 Tl2_1 3.604963 1_565
Cu5_4 Se1_4 2.368623 1_555
Cu5_4 Se8_6 2.504396 1_555
Cu5_4 Se6_0 2.622223 1_555
Cu5_4 Se6_4 2.622223 1_555
Cu5_4 Tl2_2 3.604963 1_555
Cu5_4 Tl2_6 3.604963 1_555
Cu5_5 Se1_5 2.368623 1_555
Cu5_5 Se8_7 2.504396 1_555
Cu5_5 Se6_1 2.622223 1_555
Cu5_5 Se6_5 2.622223 1_555
Cu5_5 Tl2_3 3.604963 1_555
Cu5_5 Tl2_7 3.604963 1_555
Cu5_6 Se1_6 2.368623 1_555
Cu5_6 Se8_4 2.504396 1_565
Cu5_6 Se6_6 2.622223 1_555
Cu5_6 Se6_2 2.622223 1_555
Cu5_6 Tl2_0 3.604963 1_565
Cu5_6 Tl2_4 3.604963 1_565
Cu5_7 Se1_7 2.368623 1_555
Cu5_7 Se8_5 2.504396 1_565
Cu5_7 Se6_3 2.622223 1_555
Cu5_7 Se6_7 2.622223 1_555
Cu5_7 Tl2_1 3.604963 1_565
Cu5_7 Tl2_5 3.604963 1_565
Cu6_0 Se2_0 2.368623 1_555
Cu6_0 Se11_0 2.504396 1_555
Cu6_0 Se5_4 2.622223 1_555
Cu6_0 Se5_0 2.622223 1_555
Cu6_0 Tl1_4 3.604963 1_555
Cu6_0 Tl1_0 3.604963 1_555
Cu6_1 Se2_1 2.368623 1_555
Cu6_1 Se11_1 2.504396 1_555
Cu6_1 Se5_5 2.622223 1_555
Cu6_1 Se5_1 2.622223 1_555
Cu6_1 Tl1_5 3.604963 1_555
Cu6_1 Tl1_1 3.604963 1_555
Cu6_2 Se2_2 2.368623 1_555
Cu6_2 Se11_2 2.504396 1_555
Cu6_2 Se5_6 2.622223 1_555
Cu6_2 Se5_2 2.622223 1_555
Cu6_2 Tl1_6 3.604963 1_555
Cu6_2 Tl1_2 3.604963 1_555
Cu6_3 Se2_3 2.368623 1_555
Cu6_3 Se11_3 2.504396 1_555
Cu6_3 Se5_3 2.622223 1_555
Cu6_3 Se5_7 2.622223 1_555
Cu6_3 Tl1_3 3.604963 1_555
Cu6_3 Tl1_7 3.604963 1_555
Cu6_4 Se2_4 2.368623 1_555
Cu6_4 Se11_4 2.504396 1_555
Cu6_4 Se5_0 2.622223 1_655
Cu6_4 Se5_4 2.622223 1_555
Cu6_4 Tl1_0 3.604963 1_655
Cu6_4 Tl1_4 3.604963 1_555
Cu6_5 Se2_5 2.368623 1_555
Cu6_5 Se11_5 2.504396 1_555
Cu6_5 Se5_1 2.622223 1_655
Cu6_5 Se5_5 2.622223 1_555
Cu6_5 Tl1_1 3.604963 1_655
Cu6_5 Tl1_5 3.604963 1_555
Cu6_6 Se2_6 2.368623 1_555
Cu6_6 Se11_6 2.504396 1_555
Cu6_6 Se5_6 2.622223 1_555
Cu6_6 Se5_2 2.622223 1_655
Cu6_6 Tl1_2 3.604963 1_655
Cu6_6 Tl1_6 3.604963 1_555
Cu6_7 Se2_7 2.368623 1_555
Cu6_7 Se11_7 2.504396 1_555
Cu6_7 Se5_3 2.622223 1_655
Cu6_7 Se5_7 2.622223 1_555
Cu6_7 Tl1_7 3.604963 1_555
Cu6_7 Tl1_3 3.604963 1_655
Cu7_0 Se3_0 2.368623 1_555
Cu7_0 Se10_0 2.504396 1_555
Cu7_0 Se4_0 2.622223 1_555
Cu7_0 Se4_4 2.622223 1_555
Cu7_0 Tl0_0 3.604963 1_555
Cu7_0 Tl0_4 3.604963 1_555
Cu7_1 Se3_1 2.368623 1_555
Cu7_1 Se10_1 2.504396 1_555
Cu7_1 Se4_5 2.622223 1_555
Cu7_1 Se4_1 2.622223 1_555
Cu7_1 Tl0_1 3.604963 1_555
Cu7_1 Tl0_5 3.604963 1_555
Cu7_2 Se3_2 2.368623 1_555
Cu7_2 Se10_2 2.504396 1_555
Cu7_2 Se4_6 2.622223 1_555
Cu7_2 Se4_2 2.622223 1_555
Cu7_2 Tl0_2 3.604963 1_555
Cu7_2 Tl0_6 3.604963 1_555
Cu7_3 Se3_3 2.368623 1_555
Cu7_3 Se10_3 2.504396 1_555
Cu7_3 Se4_7 2.622223 1_555
Cu7_3 Se4_3 2.622223 1_555
Cu7_3 Tl0_3 3.604963 1_555
Cu7_3 Tl0_7 3.604963 1_555
Cu7_4 Se3_4 2.368623 1_555
Cu7_4 Se10_4 2.504396 1_555
Cu7_4 Se4_0 2.622223 1_655
Cu7_4 Se4_4 2.622223 1_555
Cu7_4 Tl0_0 3.604963 1_655
Cu7_4 Tl0_4 3.604963 1_555
Cu7_5 Se3_5 2.368623 1_555
Cu7_5 Se10_5 2.504396 1_555
Cu7_5 Se4_1 2.622223 1_655
Cu7_5 Se4_5 2.622223 1_555
Cu7_5 Tl0_5 3.604963 1_555
Cu7_5 Tl0_1 3.604963 1_655
Cu7_6 Se3_6 2.368623 1_555
Cu7_6 Se10_6 2.504396 1_555
Cu7_6 Se4_6 2.622223 1_555
Cu7_6 Se4_2 2.622223 1_655
Cu7_6 Tl0_6 3.604963 1_555
Cu7_6 Tl0_2 3.604963 1_655
Cu7_7 Se3_7 2.368623 1_555
Cu7_7 Se10_7 2.504396 1_555
Cu7_7 Se4_3 2.622223 1_655
Cu7_7 Se4_7 2.622223 1_555
Cu7_7 Tl0_7 3.604963 1_555
Cu7_7 Tl0_3 3.604963 1_655
Cu8_0 Se10_4 2.430330 1_455
Cu8_0 Se10_0 2.430330 1_555
Cu8_0 Se0_0 2.456609 1_555
Cu8_0 Se5_1 2.736143 1_554
Cu8_1 Se10_5 2.430330 1_455
Cu8_1 Se10_1 2.430330 1_555
Cu8_1 Se0_1 2.456609 1_555
Cu8_1 Se5_0 2.736143 1_555
Cu8_2 Se10_6 2.430330 1_455
Cu8_2 Se10_2 2.430330 1_555
Cu8_2 Se0_2 2.456609 1_555
Cu8_2 Se5_3 2.736143 1_554
Cu8_3 Se10_3 2.430330 1_555
Cu8_3 Se10_7 2.430330 1_455
Cu8_3 Se0_3 2.456609 1_555
Cu8_3 Se5_2 2.736143 1_555
Cu8_4 Se10_0 2.430330 1_555
Cu8_4 Se10_4 2.430330 1_555
Cu8_4 Se0_4 2.456609 1_555
Cu8_4 Se5_5 2.736143 1_554
Cu8_5 Se10_5 2.430330 1_555
Cu8_5 Se10_1 2.430330 1_555
Cu8_5 Se0_5 2.456609 1_555
Cu8_5 Se5_4 2.736143 1_555
Cu8_6 Se10_2 2.430330 1_555
Cu8_6 Se10_6 2.430330 1_555
Cu8_6 Se0_6 2.456609 1_555
Cu8_6 Se5_7 2.736143 1_554
Cu8_7 Se10_7 2.430330 1_555
Cu8_7 Se10_3 2.430330 1_555
Cu8_7 Se0_7 2.456609 1_555
Cu8_7 Se5_6 2.736143 1_555
Cu9_0 Se11_0 2.430330 1_555
Cu9_0 Se11_4 2.430330 1_455
Cu9_0 Se1_0 2.456609 1_555
Cu9_0 Se4_1 2.736143 1_555
Cu9_1 Se11_1 2.430330 1_555
Cu9_1 Se11_5 2.430330 1_455
Cu9_1 Se1_1 2.456609 1_555
Cu9_1 Se4_0 2.736143 1_556
Cu9_2 Se11_6 2.430330 1_455
Cu9_2 Se11_2 2.430330 1_555
Cu9_2 Se1_2 2.456609 1_555
Cu9_2 Se4_3 2.736143 1_555
Cu9_3 Se11_7 2.430330 1_455
Cu9_3 Se11_3 2.430330 1_555
Cu9_3 Se1_3 2.456609 1_555
Cu9_3 Se4_2 2.736143 1_556
Cu9_4 Se11_0 2.430330 1_555
Cu9_4 Se11_4 2.430330 1_555
Cu9_4 Se1_4 2.456609 1_555
Cu9_4 Se4_5 2.736143 1_555
Cu9_5 Se11_1 2.430330 1_555
Cu9_5 Se11_5 2.430330 1_555
Cu9_5 Se1_5 2.456609 1_555
Cu9_5 Se4_4 2.736143 1_556
Cu9_6 Se11_2 2.430330 1_555
Cu9_6 Se11_6 2.430330 1_555
Cu9_6 Se1_6 2.456609 1_555
Cu9_6 Se4_7 2.736143 1_555
Cu9_7 Se11_3 2.430330 1_555
Cu9_7 Se11_7 2.430330 1_555
Cu9_7 Se1_7 2.456609 1_555
Cu9_7 Se4_6 2.736143 1_556
Cu10_0 Se8_4 2.430330 1_555
Cu10_0 Se8_0 2.430330 1_555
Cu10_0 Se2_0 2.456609 1_555
Cu10_0 Se7_0 2.736143 1_555
Cu10_0 Cu12_0 2.768296 1_555
Cu10_0 Cu12_4 2.768296 1_555
Cu10_1 Se8_1 2.430330 1_555
Cu10_1 Se8_5 2.430330 1_555
Cu10_1 Se2_1 2.456609 1_555
Cu10_1 Se7_1 2.736143 1_555
Cu10_1 Cu12_1 2.768296 1_555
Cu10_1 Cu12_5 2.768296 1_555
Cu10_2 Se8_2 2.430330 1_555
Cu10_2 Se8_6 2.430330 1_555
Cu10_2 Se2_2 2.456609 1_555
Cu10_2 Se7_2 2.736143 1_555
Cu10_2 Cu12_2 2.768296 1_555
Cu10_2 Cu12_6 2.768296 1_555
Cu10_3 Se8_3 2.430330 1_555
Cu10_3 Se8_7 2.430330 1_555
Cu10_3 Se2_3 2.456609 1_555
Cu10_3 Se7_3 2.736143 1_555
Cu10_3 Cu12_3 2.768296 1_555
Cu10_3 Cu12_7 2.768296 1_555
Cu10_4 Se8_4 2.430330 1_555
Cu10_4 Se8_0 2.430330 1_655
Cu10_4 Se2_4 2.456609 1_555
Cu10_4 Se7_4 2.736143 1_555
Cu10_4 Cu12_0 2.768296 1_655
Cu10_4 Cu12_4 2.768296 1_555
Cu10_5 Se8_1 2.430330 1_655
Cu10_5 Se8_5 2.430330 1_555
Cu10_5 Se2_5 2.456609 1_555
Cu10_5 Se7_5 2.736143 1_555
Cu10_5 Cu12_1 2.768296 1_655
Cu10_5 Cu12_5 2.768296 1_555
Cu10_6 Se8_2 2.430330 1_655
Cu10_6 Se8_6 2.430330 1_555
Cu10_6 Se2_6 2.456609 1_555
Cu10_6 Se7_6 2.736143 1_555
Cu10_6 Cu12_2 2.768296 1_655
Cu10_6 Cu12_6 2.768296 1_555
Cu10_7 Se8_7 2.430330 1_555
Cu10_7 Se8_3 2.430330 1_655
Cu10_7 Se2_7 2.456609 1_555
Cu10_7 Se7_7 2.736143 1_555
Cu10_7 Cu12_3 2.768296 1_655
Cu10_7 Cu12_7 2.768296 1_555
Cu11_0 Se9_0 2.430330 1_555
Cu11_0 Se9_4 2.430330 1_555
Cu11_0 Se3_0 2.456609 1_555
Cu11_0 Se6_0 2.736143 1_555
Cu11_0 Cu1_0 2.736903 1_555
Cu11_0 Cu1_4 2.736903 1_555
Cu11_0 Cu13_4 2.768296 1_555
Cu11_0 Cu13_0 2.768296 1_555
Cu11_1 Se9_1 2.430330 1_555
Cu11_1 Se9_5 2.430330 1_555
Cu11_1 Se3_1 2.456609 1_555
Cu11_1 Se6_1 2.736143 1_555
Cu11_1 Cu1_5 2.736903 1_555
Cu11_1 Cu1_1 2.736903 1_555
Cu11_1 Cu13_1 2.768296 1_555
Cu11_1 Cu13_5 2.768296 1_555
Cu11_2 Se9_2 2.430330 1_555
Cu11_2 Se9_6 2.430330 1_555
Cu11_2 Se3_2 2.456609 1_555
Cu11_2 Se6_2 2.736143 1_555
Cu11_2 Cu1_2 2.736903 1_555
Cu11_2 Cu1_6 2.736903 1_555
Cu11_2 Cu13_6 2.768296 1_555
Cu11_2 Cu13_2 2.768296 1_555
Cu11_3 Se9_3 2.430330 1_555
Cu11_3 Se9_7 2.430330 1_555
Cu11_3 Se3_3 2.456609 1_555
Cu11_3 Se6_3 2.736143 1_555
Cu11_3 Cu1_3 2.736903 1_555
Cu11_3 Cu1_7 2.736903 1_555
Cu11_3 Cu13_3 2.768296 1_555
Cu11_3 Cu13_7 2.768296 1_555
Cu11_4 Se9_0 2.430330 1_655
Cu11_4 Se9_4 2.430330 1_555
Cu11_4 Se3_4 2.456609 1_555
Cu11_4 Se6_4 2.736143 1_555
Cu11_4 Cu1_0 2.736903 1_655
Cu11_4 Cu1_4 2.736903 1_555
Cu11_4 Cu13_0 2.768296 1_655
Cu11_4 Cu13_4 2.768296 1_555
Cu11_5 Se9_5 2.430330 1_555
Cu11_5 Se9_1 2.430330 1_655
Cu11_5 Se3_5 2.456609 1_555
Cu11_5 Se6_5 2.736143 1_555
Cu11_5 Cu1_5 2.736903 1_555
Cu11_5 Cu1_1 2.736903 1_655
Cu11_5 Cu13_5 2.768296 1_555
Cu11_5 Cu13_1 2.768296 1_655
Cu11_6 Se9_2 2.430330 1_655
Cu11_6 Se9_6 2.430330 1_555
Cu11_6 Se3_6 2.456609 1_555
Cu11_6 Se6_6 2.736143 1_555
Cu11_6 Cu1_2 2.736903 1_655
Cu11_6 Cu1_6 2.736903 1_555
Cu11_6 Cu13_2 2.768296 1_655
Cu11_6 Cu13_6 2.768296 1_555
Cu11_7 Se9_7 2.430330 1_555
Cu11_7 Se9_3 2.430330 1_655
Cu11_7 Se3_7 2.456609 1_555
Cu11_7 Se6_7 2.736143 1_555
Cu11_7 Cu1_3 2.736903 1_655
Cu11_7 Cu1_7 2.736903 1_555
Cu11_7 Cu13_3 2.768296 1_655
Cu11_7 Cu13_7 2.768296 1_555
Cu12_0 Se2_4 2.444332 1_455
Cu12_0 Se2_0 2.444332 1_555
Cu12_0 Se5_0 2.515467 1_555
Cu12_0 Se8_0 2.690437 1_555
Cu12_0 Cu6_0 2.701148 1_555
Cu12_0 Cu6_4 2.701148 1_455
Cu12_1 Se2_1 2.444332 1_555
Cu12_1 Se2_5 2.444332 1_455
Cu12_1 Se5_1 2.515467 1_555
Cu12_1 Se8_1 2.690437 1_555
Cu12_1 Cu6_1 2.701148 1_555
Cu12_1 Cu6_5 2.701148 1_455
Cu12_2 Se2_2 2.444332 1_555
Cu12_2 Se2_6 2.444332 1_455
Cu12_2 Se5_2 2.515467 1_555
Cu12_2 Se8_2 2.690437 1_555
Cu12_2 Cu6_2 2.701148 1_555
Cu12_2 Cu6_6 2.701148 1_455
Cu12_3 Se2_7 2.444332 1_455
Cu12_3 Se2_3 2.444332 1_555
Cu12_3 Se5_3 2.515467 1_555
Cu12_3 Se8_3 2.690437 1_555
Cu12_3 Cu6_3 2.701148 1_555
Cu12_3 Cu6_7 2.701148 1_455
Cu12_4 Se2_4 2.444332 1_555
Cu12_4 Se2_0 2.444332 1_555
Cu12_4 Se5_4 2.515467 1_555
Cu12_4 Se8_4 2.690437 1_555
Cu12_4 Cu6_0 2.701148 1_555
Cu12_4 Cu6_4 2.701148 1_555
Cu12_5 Se2_5 2.444332 1_555
Cu12_5 Se2_1 2.444332 1_555
Cu12_5 Se5_5 2.515467 1_555
Cu12_5 Se8_5 2.690437 1_555
Cu12_5 Cu6_1 2.701148 1_555
Cu12_5 Cu6_5 2.701148 1_555
Cu12_6 Se2_6 2.444332 1_555
Cu12_6 Se2_2 2.444332 1_555
Cu12_6 Se5_6 2.515467 1_555
Cu12_6 Se8_6 2.690437 1_555
Cu12_6 Cu6_6 2.701148 1_555
Cu12_6 Cu6_2 2.701148 1_555
Cu12_7 Se2_7 2.444332 1_555
Cu12_7 Se2_3 2.444332 1_555
Cu12_7 Se5_7 2.515467 1_555
Cu12_7 Se8_7 2.690437 1_555
Cu12_7 Cu6_3 2.701148 1_555
Cu12_7 Cu6_7 2.701148 1_555
Cu13_0 Se3_0 2.444332 1_555
Cu13_0 Se3_4 2.444332 1_455
Cu13_0 Se4_0 2.515467 1_555
Cu13_0 Se9_0 2.690437 1_555
Cu13_0 Cu7_0 2.701148 1_555
Cu13_0 Cu7_4 2.701148 1_455
Cu13_1 Se3_1 2.444332 1_555
Cu13_1 Se3_5 2.444332 1_455
Cu13_1 Se4_1 2.515467 1_555
Cu13_1 Se9_1 2.690437 1_555
Cu13_1 Cu7_1 2.701148 1_555
Cu13_1 Cu7_5 2.701148 1_455
Cu13_2 Se3_2 2.444332 1_555
Cu13_2 Se3_6 2.444332 1_455
Cu13_2 Se4_2 2.515467 1_555
Cu13_2 Se9_2 2.690437 1_555
Cu13_2 Cu7_2 2.701148 1_555
Cu13_2 Cu7_6 2.701148 1_455
Cu13_3 Se3_3 2.444332 1_555
Cu13_3 Se3_7 2.444332 1_455
Cu13_3 Se4_3 2.515467 1_555
Cu13_3 Se9_3 2.690437 1_555
Cu13_3 Cu7_3 2.701148 1_555
Cu13_3 Cu7_7 2.701148 1_455
Cu13_4 Se3_4 2.444332 1_555
Cu13_4 Se3_0 2.444332 1_555
Cu13_4 Se4_4 2.515467 1_555
Cu13_4 Se9_4 2.690437 1_555
Cu13_4 Cu7_4 2.701148 1_555
Cu13_4 Cu7_0 2.701148 1_555
Cu13_5 Se3_5 2.444332 1_555
Cu13_5 Se3_1 2.444332 1_555
Cu13_5 Se4_5 2.515467 1_555
Cu13_5 Se9_5 2.690437 1_555
Cu13_5 Cu7_1 2.701148 1_555
Cu13_5 Cu7_5 2.701148 1_555
Cu13_6 Se3_2 2.444332 1_555
Cu13_6 Se3_6 2.444332 1_555
Cu13_6 Se4_6 2.515467 1_555
Cu13_6 Se9_6 2.690437 1_555
Cu13_6 Cu7_2 2.701148 1_555
Cu13_6 Cu7_6 2.701148 1_555
Cu13_7 Se3_3 2.444332 1_555
Cu13_7 Se3_7 2.444332 1_555
Cu13_7 Se4_7 2.515467 1_555
Cu13_7 Se9_7 2.690437 1_555
Cu13_7 Cu7_3 2.701148 1_555
Cu13_7 Cu7_7 2.701148 1_555
Cu14_0 Se0_0 2.444332 1_555
Cu14_0 Se0_4 2.444332 1_555
Cu14_0 Se7_0 2.515467 1_555
Cu14_0 Se10_0 2.690437 1_555
Cu14_0 Cu4_4 2.701148 1_555
Cu14_0 Cu4_0 2.701148 1_555
Cu14_0 Cu8_4 2.768296 1_555
Cu14_0 Cu8_0 2.768296 1_555
Cu14_1 Se0_5 2.444332 1_555
Cu14_1 Se0_1 2.444332 1_555
Cu14_1 Se7_1 2.515467 1_555
Cu14_1 Se10_1 2.690437 1_555
Cu14_1 Cu4_1 2.701148 1_555
Cu14_1 Cu4_5 2.701148 1_555
Cu14_1 Cu8_1 2.768296 1_555
Cu14_1 Cu8_5 2.768296 1_555
Cu14_2 Se0_2 2.444332 1_555
Cu14_2 Se0_6 2.444332 1_555
Cu14_2 Se7_2 2.515467 1_555
Cu14_2 Se10_2 2.690437 1_555
Cu14_2 Cu4_6 2.701148 1_555
Cu14_2 Cu4_2 2.701148 1_555
Cu14_2 Cu8_2 2.768296 1_555
Cu14_2 Cu8_6 2.768296 1_555
Cu14_3 Se0_7 2.444332 1_555
Cu14_3 Se0_3 2.444332 1_555
Cu14_3 Se7_3 2.515467 1_555
Cu14_3 Se10_3 2.690437 1_555
Cu14_3 Cu4_7 2.701148 1_555
Cu14_3 Cu4_3 2.701148 1_555
Cu14_3 Cu8_3 2.768296 1_555
Cu14_3 Cu8_7 2.768296 1_555
Cu14_4 Se0_4 2.444332 1_555
Cu14_4 Se0_0 2.444332 1_655
Cu14_4 Se7_4 2.515467 1_555
Cu14_4 Se10_4 2.690437 1_555
Cu14_4 Cu4_4 2.701148 1_555
Cu14_4 Cu4_0 2.701148 1_655
Cu14_4 Cu8_4 2.768296 1_555
Cu14_4 Cu8_0 2.768296 1_655
Cu14_5 Se0_5 2.444332 1_555
Cu14_5 Se0_1 2.444332 1_655
Cu14_5 Se7_5 2.515467 1_555
Cu14_5 Se10_5 2.690437 1_555
Cu14_5 Cu4_1 2.701148 1_655
Cu14_5 Cu4_5 2.701148 1_555
Cu14_5 Cu8_1 2.768296 1_655
Cu14_5 Cu8_5 2.768296 1_555
Cu14_6 Se0_2 2.444332 1_655
Cu14_6 Se0_6 2.444332 1_555
Cu14_6 Se7_6 2.515467 1_555
Cu14_6 Se10_6 2.690437 1_555
Cu14_6 Cu4_2 2.701148 1_655
Cu14_6 Cu4_6 2.701148 1_555
Cu14_6 Cu8_6 2.768296 1_555
Cu14_6 Cu8_2 2.768296 1_655
Cu14_7 Se0_7 2.444332 1_555
Cu14_7 Se0_3 2.444332 1_655
Cu14_7 Se7_7 2.515467 1_555
Cu14_7 Se10_7 2.690437 1_555
Cu14_7 Cu4_3 2.701148 1_655
Cu14_7 Cu4_7 2.701148 1_555
Cu14_7 Cu8_3 2.768296 1_655
Cu14_7 Cu8_7 2.768296 1_555
Cu15_0 Se1_0 2.444332 1_555
Cu15_0 Se1_4 2.444332 1_555
Cu15_0 Se6_0 2.515467 1_555
Cu15_0 Se11_0 2.690437 1_555
Cu15_0 Cu5_0 2.701148 1_555
Cu15_0 Cu5_4 2.701148 1_555
Cu15_0 Cu9_0 2.768296 1_555
Cu15_0 Cu9_4 2.768296 1_555
Cu15_1 Se1_1 2.444332 1_555
Cu15_1 Se1_5 2.444332 1_555
Cu15_1 Se6_1 2.515467 1_555
Cu15_1 Se11_1 2.690437 1_555
Cu15_1 Cu5_1 2.701148 1_555
Cu15_1 Cu5_5 2.701148 1_555
Cu15_1 Cu9_1 2.768296 1_555
Cu15_1 Cu9_5 2.768296 1_555
Cu15_2 Se1_2 2.444332 1_555
Cu15_2 Se1_6 2.444332 1_555
Cu15_2 Se6_2 2.515467 1_555
Cu15_2 Se11_2 2.690437 1_555
Cu15_2 Cu5_2 2.701148 1_555
Cu15_2 Cu5_6 2.701148 1_555
Cu15_2 Cu9_2 2.768296 1_555
Cu15_2 Cu9_6 2.768296 1_555
Cu15_3 Se1_3 2.444332 1_555
Cu15_3 Se1_7 2.444332 1_555
Cu15_3 Se6_3 2.515467 1_555
Cu15_3 Se11_3 2.690437 1_555
Cu15_3 Cu5_3 2.701148 1_555
Cu15_3 Cu5_7 2.701148 1_555
Cu15_3 Cu9_3 2.768296 1_555
Cu15_3 Cu9_7 2.768296 1_555
Cu15_4 Se1_4 2.444332 1_555
Cu15_4 Se1_0 2.444332 1_655
Cu15_4 Se6_4 2.515467 1_555
Cu15_4 Se11_4 2.690437 1_555
Cu15_4 Cu5_0 2.701148 1_655
Cu15_4 Cu5_4 2.701148 1_555
Cu15_4 Cu9_0 2.768296 1_655
Cu15_4 Cu9_4 2.768296 1_555
Cu15_5 Se1_1 2.444332 1_655
Cu15_5 Se1_5 2.444332 1_555
Cu15_5 Se6_5 2.515467 1_555
Cu15_5 Se11_5 2.690437 1_555
Cu15_5 Cu5_1 2.701148 1_655
Cu15_5 Cu5_5 2.701148 1_555
Cu15_5 Cu9_1 2.768296 1_655
Cu15_5 Cu9_5 2.768296 1_555
Cu15_6 Se1_2 2.444332 1_655
Cu15_6 Se1_6 2.444332 1_555
Cu15_6 Se6_6 2.515467 1_555
Cu15_6 Se11_6 2.690437 1_555
Cu15_6 Cu5_6 2.701148 1_555
Cu15_6 Cu5_2 2.701148 1_655
Cu15_6 Cu9_6 2.768296 1_555
Cu15_6 Cu9_2 2.768296 1_655
Cu15_7 Se1_3 2.444332 1_655
Cu15_7 Se1_7 2.444332 1_555
Cu15_7 Se6_7 2.515467 1_555
Cu15_7 Se11_7 2.690437 1_555
Cu15_7 Cu5_3 2.701148 1_655
Cu15_7 Cu5_7 2.701148 1_555
Cu15_7 Cu9_3 2.768296 1_655
Cu15_7 Cu9_7 2.768296 1_555
Se0_0 Tl2_5 3.435976 1_454
Se0_0 Tl2_1 3.435976 1_554
Se0_0 Tl3_6 3.482612 1_445
Se0_0 Tl3_2 3.482612 1_545
Se0_1 Tl2_0 3.435976 1_555
Se0_1 Tl2_4 3.435976 1_455
Se0_1 Tl3_7 3.482612 1_445
Se0_1 Tl3_3 3.482612 1_545
Se0_2 Tl2_3 3.435976 1_554
Se0_2 Tl2_7 3.435976 1_454
Se0_2 Tl3_0 3.482612 1_555
Se0_2 Tl3_4 3.482612 1_455
Se0_3 Tl2_2 3.435976 1_555
Se0_3 Tl2_6 3.435976 1_455
Se0_3 Tl3_5 3.482612 1_455
Se0_3 Tl3_1 3.482612 1_555
Se0_4 Tl2_5 3.435976 1_554
Se0_4 Tl2_1 3.435976 1_554
Se0_4 Tl3_6 3.482612 1_545
Se0_4 Tl3_2 3.482612 1_545
Se0_5 Tl2_0 3.435976 1_555
Se0_5 Tl2_4 3.435976 1_555
Se0_5 Tl3_3 3.482612 1_545
Se0_5 Tl3_7 3.482612 1_545
Se0_6 Tl2_3 3.435976 1_554
Se0_6 Tl2_7 3.435976 1_554
Se0_6 Tl3_0 3.482612 1_555
Se0_6 Tl3_4 3.482612 1_555
Se0_7 Tl2_2 3.435976 1_555
Se0_7 Tl2_6 3.435976 1_555
Se0_7 Tl3_1 3.482612 1_555
Se0_7 Tl3_5 3.482612 1_555
Se1_0 Tl3_5 3.435976 1_455
Se1_0 Tl3_1 3.435976 1_555
Se1_0 Tl2_2 3.482612 1_555
Se1_0 Tl2_6 3.482612 1_455
Se1_1 Tl3_4 3.435976 1_456
Se1_1 Tl3_0 3.435976 1_556
Se1_1 Tl2_7 3.482612 1_455
Se1_1 Tl2_3 3.482612 1_555
Se1_2 Tl3_7 3.435976 1_455
Se1_2 Tl3_3 3.435976 1_555
Se1_2 Tl2_4 3.482612 1_465
Se1_2 Tl2_0 3.482612 1_565
Se1_3 Tl3_2 3.435976 1_556
Se1_3 Tl3_6 3.435976 1_456
Se1_3 Tl2_5 3.482612 1_465
Se1_3 Tl2_1 3.482612 1_565
Se1_4 Tl3_1 3.435976 1_555
Se1_4 Tl3_5 3.435976 1_555
Se1_4 Tl2_2 3.482612 1_555
Se1_4 Tl2_6 3.482612 1_555
Se1_5 Tl3_0 3.435976 1_556
Se1_5 Tl3_4 3.435976 1_556
Se1_5 Tl2_3 3.482612 1_555
Se1_5 Tl2_7 3.482612 1_555
Se1_6 Tl3_3 3.435976 1_555
Se1_6 Tl3_7 3.435976 1_555
Se1_6 Tl2_0 3.482612 1_565
Se1_6 Tl2_4 3.482612 1_565
Se1_7 Tl3_2 3.435976 1_556
Se1_7 Tl3_6 3.435976 1_556
Se1_7 Tl2_5 3.482612 1_565
Se1_7 Tl2_1 3.482612 1_565
Se2_0 Tl0_0 3.435976 1_555
Se2_0 Tl0_4 3.435976 1_555
Se2_0 Tl1_4 3.482612 1_555
Se2_0 Tl1_0 3.482612 1_555
Se2_1 Tl0_1 3.435976 1_555
Se2_1 Tl0_5 3.435976 1_555
Se2_1 Tl1_1 3.482612 1_555
Se2_1 Tl1_5 3.482612 1_555
Se2_2 Tl0_2 3.435976 1_555
Se2_2 Tl0_6 3.435976 1_555
Se2_2 Tl1_2 3.482612 1_555
Se2_2 Tl1_6 3.482612 1_555
Se2_3 Tl0_7 3.435976 1_555
Se2_3 Tl0_3 3.435976 1_555
Se2_3 Tl1_3 3.482612 1_555
Se2_3 Tl1_7 3.482612 1_555
Se2_4 Tl0_0 3.435976 1_655
Se2_4 Tl0_4 3.435976 1_555
Se2_4 Tl1_0 3.482612 1_655
Se2_4 Tl1_4 3.482612 1_555
Se2_5 Tl0_5 3.435976 1_555
Se2_5 Tl0_1 3.435976 1_655
Se2_5 Tl1_1 3.482612 1_655
Se2_5 Tl1_5 3.482612 1_555
Se2_6 Tl0_6 3.435976 1_555
Se2_6 Tl0_2 3.435976 1_655
Se2_6 Tl1_2 3.482612 1_655
Se2_6 Tl1_6 3.482612 1_555
Se2_7 Tl0_3 3.435976 1_655
Se2_7 Tl0_7 3.435976 1_555
Se2_7 Tl1_3 3.482612 1_655
Se2_7 Tl1_7 3.482612 1_555
Se3_0 Tl1_0 3.435976 1_555
Se3_0 Tl1_4 3.435976 1_555
Se3_0 Tl0_0 3.482612 1_555
Se3_0 Tl0_4 3.482612 1_555
Se3_1 Tl1_5 3.435976 1_555
Se3_1 Tl1_1 3.435976 1_555
Se3_1 Tl0_5 3.482612 1_555
Se3_1 Tl0_1 3.482612 1_555
Se3_2 Tl1_2 3.435976 1_555
Se3_2 Tl1_6 3.435976 1_555
Se3_2 Tl0_6 3.482612 1_555
Se3_2 Tl0_2 3.482612 1_555
Se3_3 Tl1_3 3.435976 1_555
Se3_3 Tl1_7 3.435976 1_555
Se3_3 Tl0_3 3.482612 1_555
Se3_3 Tl0_7 3.482612 1_555
Se3_4 Tl1_4 3.435976 1_555
Se3_4 Tl1_0 3.435976 1_655
Se3_4 Tl0_0 3.482612 1_655
Se3_4 Tl0_4 3.482612 1_555
Se3_5 Tl1_1 3.435976 1_655
Se3_5 Tl1_5 3.435976 1_555
Se3_5 Tl0_5 3.482612 1_555
Se3_5 Tl0_1 3.482612 1_655
Se3_6 Tl1_2 3.435976 1_655
Se3_6 Tl1_6 3.435976 1_555
Se3_6 Tl0_6 3.482612 1_555
Se3_6 Tl0_2 3.482612 1_655
Se3_7 Tl1_3 3.435976 1_655
Se3_7 Tl1_7 3.435976 1_555
Se3_7 Tl0_7 3.482612 1_555
Se3_7 Tl0_3 3.482612 1_655
Se4_0 Tl3_0 3.346394 1_555
Se4_0 Tl3_4 3.346394 1_455
Se4_1 Tl3_5 3.346394 1_455
Se4_1 Tl3_1 3.346394 1_555
Se4_2 Tl3_6 3.346394 1_455
Se4_2 Tl3_2 3.346394 1_555
Se4_3 Tl3_7 3.346394 1_455
Se4_3 Tl3_3 3.346394 1_555
Se4_4 Tl3_0 3.346394 1_555
Se4_4 Tl3_4 3.346394 1_555
Se4_5 Tl3_1 3.346394 1_555
Se4_5 Tl3_5 3.346394 1_555
Se4_6 Tl3_2 3.346394 1_555
Se4_6 Tl3_6 3.346394 1_555
Se4_7 Tl3_7 3.346394 1_555
Se4_7 Tl3_3 3.346394 1_555
Se5_0 Tl2_0 3.346394 1_555
Se5_0 Tl2_4 3.346394 1_455
Se5_1 Tl2_1 3.346394 1_555
Se5_1 Tl2_5 3.346394 1_455
Se5_2 Tl2_2 3.346394 1_555
Se5_2 Tl2_6 3.346394 1_455
Se5_3 Tl2_7 3.346394 1_455
Se5_3 Tl2_3 3.346394 1_555
Se5_4 Tl2_0 3.346394 1_555
Se5_4 Tl2_4 3.346394 1_555
Se5_5 Tl2_1 3.346394 1_555
Se5_5 Tl2_5 3.346394 1_555
Se5_6 Tl2_2 3.346394 1_555
Se5_6 Tl2_6 3.346394 1_555
Se5_7 Tl2_3 3.346394 1_555
Se5_7 Tl2_7 3.346394 1_555
Se6_0 Tl1_0 3.346394 1_555
Se6_0 Tl1_4 3.346394 1_555
Se6_1 Tl1_1 3.346394 1_555
Se6_1 Tl1_5 3.346394 1_555
Se6_2 Tl1_6 3.346394 1_555
Se6_2 Tl1_2 3.346394 1_555
Se6_3 Tl1_3 3.346394 1_555
Se6_3 Tl1_7 3.346394 1_555
Se6_4 Tl1_0 3.346394 1_655
Se6_4 Tl1_4 3.346394 1_555
Se6_5 Tl1_5 3.346394 1_555
Se6_5 Tl1_1 3.346394 1_655
Se6_6 Tl1_2 3.346394 1_655
Se6_6 Tl1_6 3.346394 1_555
Se6_7 Tl1_7 3.346394 1_555
Se6_7 Tl1_3 3.346394 1_655
Se7_0 Tl0_0 3.346394 1_555
Se7_0 Tl0_4 3.346394 1_555
Se7_1 Tl0_1 3.346394 1_555
Se7_1 Tl0_5 3.346394 1_555
Se7_2 Tl0_2 3.346394 1_555
Se7_2 Tl0_6 3.346394 1_555
Se7_3 Tl0_3 3.346394 1_555
Se7_3 Tl0_7 3.346394 1_555
Se7_4 Tl0_0 3.346394 1_655
Se7_4 Tl0_4 3.346394 1_555
Se7_5 Tl0_1 3.346394 1_655
Se7_5 Tl0_5 3.346394 1_555
Se7_6 Tl0_6 3.346394 1_555
Se7_6 Tl0_2 3.346394 1_655
Se7_7 Tl0_7 3.346394 1_555
Se7_7 Tl0_3 3.346394 1_655
Se8_0 Tl2_0 3.554219 1_555
Se8_0 Tl2_4 3.554219 1_455
Se8_1 Tl2_1 3.554219 1_555
Se8_1 Tl2_5 3.554219 1_455
Se8_2 Tl2_6 3.554219 1_455
Se8_2 Tl2_2 3.554219 1_555
Se8_3 Tl2_7 3.554219 1_455
Se8_3 Tl2_3 3.554219 1_555
Se8_4 Tl2_0 3.554219 1_555
Se8_4 Tl2_4 3.554219 1_555
Se8_5 Tl2_1 3.554219 1_555
Se8_5 Tl2_5 3.554219 1_555
Se8_6 Tl2_6 3.554219 1_555
Se8_6 Tl2_2 3.554219 1_555
Se8_7 Tl2_3 3.554219 1_555
Se8_7 Tl2_7 3.554219 1_555
Se9_0 Tl3_0 3.554219 1_555
Se9_0 Tl3_4 3.554219 1_455
Se9_1 Tl3_5 3.554219 1_455
Se9_1 Tl3_1 3.554219 1_555
Se9_2 Tl3_6 3.554219 1_455
Se9_2 Tl3_2 3.554219 1_555
Se9_3 Tl3_3 3.554219 1_555
Se9_3 Tl3_7 3.554219 1_455
Se9_4 Tl3_0 3.554219 1_555
Se9_4 Tl3_4 3.554219 1_555
Se9_5 Tl3_1 3.554219 1_555
Se9_5 Tl3_5 3.554219 1_555
Se9_6 Tl3_6 3.554219 1_555
Se9_6 Tl3_2 3.554219 1_555
Se9_7 Tl3_3 3.554219 1_555
Se9_7 Tl3_7 3.554219 1_555
Se10_0 Tl0_4 3.554219 1_555
Se10_0 Tl0_0 3.554219 1_555
Se10_1 Tl0_1 3.554219 1_555
Se10_1 Tl0_5 3.554219 1_555
Se10_2 Tl0_6 3.554219 1_555
Se10_2 Tl0_2 3.554219 1_555
Se10_3 Tl0_3 3.554219 1_555
Se10_3 Tl0_7 3.554219 1_555
Se10_4 Tl0_0 3.554219 1_655
Se10_4 Tl0_4 3.554219 1_555
Se10_5 Tl0_1 3.554219 1_655
Se10_5 Tl0_5 3.554219 1_555
Se10_6 Tl0_6 3.554219 1_555
Se10_6 Tl0_2 3.554219 1_655
Se10_7 Tl0_7 3.554219 1_555
Se10_7 Tl0_3 3.554219 1_655
Se11_0 Tl1_0 3.554219 1_555
Se11_0 Tl1_4 3.554219 1_555
Se11_1 Tl1_1 3.554219 1_555
Se11_1 Tl1_5 3.554219 1_555
Se11_2 Tl1_2 3.554219 1_555
Se11_2 Tl1_6 3.554219 1_555
Se11_3 Tl1_3 3.554219 1_555
Se11_3 Tl1_7 3.554219 1_555
Se11_4 Tl1_0 3.554219 1_655
Se11_4 Tl1_4 3.554219 1_555
Se11_5 Tl1_1 3.554219 1_655
Se11_5 Tl1_5 3.554219 1_555
Se11_6 Tl1_2 3.554219 1_655
Se11_6 Tl1_6 3.554219 1_555
Se11_7 Tl1_7 3.554219 1_555
Se11_7 Tl1_3 3.554219 1_655
