# generated using pymatgen
data_Sn3IF5
_symmetry_space_group_name_H-M   'P 1'
_cell_length_a   25.99251408
_cell_length_b   8.60084791
_cell_length_c   27.63044203
_cell_angle_alpha   71.11831867
_cell_angle_beta   90.00000000
_cell_angle_gamma   90.00000000
_symmetry_Int_Tables_number   1
_chemical_formula_structural   Sn3IF5
_chemical_formula_sum   'Sn96 I32 F160'
_cell_volume   5844.60581159
_cell_formula_units_Z   32
loop_
 _symmetry_equiv_pos_site_id
 _symmetry_equiv_pos_as_xyz
  1  'x, y, z'
loop_
 _atom_site_type_symbol
 _atom_site_label
 _atom_site_symmetry_multiplicity
 _atom_site_fract_x
 _atom_site_fract_y
 _atom_site_fract_z
 _atom_site_occupancy
  Sn  Sn0_0  1  0.32613467  0.10068764  0.43514386  1
  Sn  Sn0_1  1  0.32613467  0.10068763  0.93514386  1
  Sn  Sn0_2  1  0.32613467  0.60068764  0.43514386  1
  Sn  Sn0_3  1  0.32613467  0.60068764  0.93514386  1
  Sn  Sn0_4  1  0.82613467  0.10068764  0.43514386  1
  Sn  Sn0_5  1  0.82613467  0.10068763  0.93514386  1
  Sn  Sn0_6  1  0.82613467  0.60068764  0.43514386  1
  Sn  Sn0_7  1  0.82613467  0.60068764  0.93514386  1
  Sn  Sn1_0  1  0.17386534  0.39931237  0.06485614  1
  Sn  Sn1_1  1  0.17386534  0.39931236  0.56485615  1
  Sn  Sn1_2  1  0.17386534  0.89931237  0.06485614  1
  Sn  Sn1_3  1  0.17386534  0.89931237  0.56485615  1
  Sn  Sn1_4  1  0.67386534  0.39931237  0.06485614  1
  Sn  Sn1_5  1  0.67386534  0.39931236  0.56485615  1
  Sn  Sn1_6  1  0.67386534  0.89931237  0.06485614  1
  Sn  Sn1_7  1  0.67386534  0.89931237  0.56485615  1
  Sn  Sn2_0  1  0.07613467  0.39931237  0.31485615  1
  Sn  Sn2_1  1  0.07613467  0.39931237  0.81485615  1
  Sn  Sn2_2  1  0.07613467  0.89931237  0.31485615  1
  Sn  Sn2_3  1  0.07613467  0.89931236  0.81485615  1
  Sn  Sn2_4  1  0.57613466  0.39931237  0.31485615  1
  Sn  Sn2_5  1  0.57613466  0.39931237  0.81485615  1
  Sn  Sn2_6  1  0.57613466  0.89931237  0.31485615  1
  Sn  Sn2_7  1  0.57613466  0.89931236  0.81485615  1
  Sn  Sn3_0  1  0.42386534  0.10068763  0.18514385  1
  Sn  Sn3_1  1  0.42386534  0.10068763  0.68514385  1
  Sn  Sn3_2  1  0.42386534  0.60068764  0.18514385  1
  Sn  Sn3_3  1  0.42386534  0.60068764  0.68514385  1
  Sn  Sn3_4  1  0.92386534  0.10068763  0.18514385  1
  Sn  Sn3_5  1  0.92386534  0.10068763  0.68514385  1
  Sn  Sn3_6  1  0.92386534  0.60068764  0.18514385  1
  Sn  Sn3_7  1  0.92386534  0.60068764  0.68514385  1
  Sn  Sn4_0  1  0.18855224  0.38465488  0.42571312  1
  Sn  Sn4_1  1  0.18855224  0.38465488  0.92571312  1
  Sn  Sn4_2  1  0.18855224  0.88465488  0.42571312  1
  Sn  Sn4_3  1  0.18855224  0.88465488  0.92571312  1
  Sn  Sn4_4  1  0.68855224  0.38465488  0.42571312  1
  Sn  Sn4_5  1  0.68855224  0.38465488  0.92571312  1
  Sn  Sn4_6  1  0.68855224  0.88465488  0.42571312  1
  Sn  Sn4_7  1  0.68855224  0.88465488  0.92571312  1
  Sn  Sn5_0  1  0.31144777  0.11534512  0.07428688  1
  Sn  Sn5_1  1  0.31144777  0.11534512  0.57428688  1
  Sn  Sn5_2  1  0.31144777  0.61534512  0.07428688  1
  Sn  Sn5_3  1  0.31144777  0.61534512  0.57428688  1
  Sn  Sn5_4  1  0.81144777  0.11534512  0.07428688  1
  Sn  Sn5_5  1  0.81144777  0.11534512  0.57428688  1
  Sn  Sn5_6  1  0.81144777  0.61534512  0.07428688  1
  Sn  Sn5_7  1  0.81144777  0.61534512  0.57428688  1
  Sn  Sn6_0  1  0.43855224  0.11534512  0.32428688  1
  Sn  Sn6_1  1  0.43855224  0.11534512  0.82428688  1
  Sn  Sn6_2  1  0.43855224  0.61534512  0.32428688  1
  Sn  Sn6_3  1  0.43855224  0.61534512  0.82428688  1
  Sn  Sn6_4  1  0.93855224  0.11534512  0.32428688  1
  Sn  Sn6_5  1  0.93855224  0.11534512  0.82428688  1
  Sn  Sn6_6  1  0.93855224  0.61534512  0.32428688  1
  Sn  Sn6_7  1  0.93855224  0.61534512  0.82428688  1
  Sn  Sn7_0  1  0.06144777  0.38465488  0.17571312  1
  Sn  Sn7_1  1  0.06144777  0.38465488  0.67571312  1
  Sn  Sn7_2  1  0.06144777  0.88465488  0.17571312  1
  Sn  Sn7_3  1  0.06144777  0.88465488  0.67571312  1
  Sn  Sn7_4  1  0.56144777  0.38465488  0.17571312  1
  Sn  Sn7_5  1  0.56144777  0.38465488  0.67571312  1
  Sn  Sn7_6  1  0.56144777  0.88465488  0.17571312  1
  Sn  Sn7_7  1  0.56144777  0.88465488  0.67571312  1
  Sn  Sn8_0  1  0.05406624  0.08109477  0.44683135  1
  Sn  Sn8_1  1  0.05406624  0.08109478  0.94683134  1
  Sn  Sn8_2  1  0.05406624  0.58109477  0.44683135  1
  Sn  Sn8_3  1  0.05406624  0.58109477  0.94683135  1
  Sn  Sn8_4  1  0.55406624  0.08109477  0.44683135  1
  Sn  Sn8_5  1  0.55406624  0.08109478  0.94683134  1
  Sn  Sn8_6  1  0.55406624  0.58109477  0.44683135  1
  Sn  Sn8_7  1  0.55406624  0.58109477  0.94683135  1
  Sn  Sn9_0  1  0.44593376  0.41890522  0.05316865  1
  Sn  Sn9_1  1  0.44593376  0.41890522  0.55316866  1
  Sn  Sn9_2  1  0.44593376  0.91890523  0.05316865  1
  Sn  Sn9_3  1  0.44593376  0.91890523  0.55316866  1
  Sn  Sn9_4  1  0.94593376  0.41890522  0.05316865  1
  Sn  Sn9_5  1  0.94593376  0.41890522  0.55316866  1
  Sn  Sn9_6  1  0.94593376  0.91890523  0.05316865  1
  Sn  Sn9_7  1  0.94593376  0.91890523  0.55316866  1
  Sn  Sn10_0  1  0.30406624  0.41890523  0.30316866  1
  Sn  Sn10_1  1  0.30406624  0.41890522  0.80316866  1
  Sn  Sn10_2  1  0.30406624  0.91890522  0.30316865  1
  Sn  Sn10_3  1  0.30406624  0.91890522  0.80316866  1
  Sn  Sn10_4  1  0.80406624  0.41890523  0.30316866  1
  Sn  Sn10_5  1  0.80406624  0.41890522  0.80316866  1
  Sn  Sn10_6  1  0.80406624  0.91890522  0.30316865  1
  Sn  Sn10_7  1  0.80406624  0.91890522  0.80316866  1
  Sn  Sn11_0  1  0.19593376  0.08109477  0.19683135  1
  Sn  Sn11_1  1  0.19593376  0.08109477  0.69683135  1
  Sn  Sn11_2  1  0.19593376  0.58109478  0.19683134  1
  Sn  Sn11_3  1  0.19593376  0.58109477  0.69683135  1
  Sn  Sn11_4  1  0.69593376  0.08109477  0.19683135  1
  Sn  Sn11_5  1  0.69593376  0.08109477  0.69683135  1
  Sn  Sn11_6  1  0.69593376  0.58109478  0.19683134  1
  Sn  Sn11_7  1  0.69593376  0.58109477  0.69683135  1
  I  I0_0  1  0.18922896  0.19404549  0.31152326  1
  I  I0_1  1  0.18922896  0.19404549  0.81152326  1
  I  I0_2  1  0.18922896  0.69404549  0.31152326  1
  I  I0_3  1  0.18922896  0.69404549  0.81152325  1
  I  I0_4  1  0.68922896  0.19404549  0.31152326  1
  I  I0_5  1  0.68922896  0.19404549  0.81152326  1
  I  I0_6  1  0.68922896  0.69404549  0.31152326  1
  I  I0_7  1  0.68922896  0.69404549  0.81152325  1
  I  I1_0  1  0.31077104  0.30595451  0.18847675  1
  I  I1_1  1  0.31077104  0.30595451  0.68847675  1
  I  I1_2  1  0.31077104  0.80595451  0.18847674  1
  I  I1_3  1  0.31077104  0.80595451  0.68847675  1
  I  I1_4  1  0.81077104  0.30595451  0.18847675  1
  I  I1_5  1  0.81077104  0.30595451  0.68847675  1
  I  I1_6  1  0.81077104  0.80595451  0.18847674  1
  I  I1_7  1  0.81077104  0.80595451  0.68847675  1
  I  I2_0  1  0.43922896  0.30595451  0.43847675  1
  I  I2_1  1  0.43922896  0.30595451  0.93847675  1
  I  I2_2  1  0.43922896  0.80595451  0.43847675  1
  I  I2_3  1  0.43922896  0.80595451  0.93847675  1
  I  I2_4  1  0.93922896  0.30595451  0.43847675  1
  I  I2_5  1  0.93922896  0.30595451  0.93847675  1
  I  I2_6  1  0.93922896  0.80595451  0.43847675  1
  I  I2_7  1  0.93922896  0.80595451  0.93847675  1
  I  I3_0  1  0.06077104  0.19404549  0.06152325  1
  I  I3_1  1  0.06077104  0.19404549  0.56152326  1
  I  I3_2  1  0.06077104  0.69404549  0.06152325  1
  I  I3_3  1  0.06077104  0.69404549  0.56152326  1
  I  I3_4  1  0.56077104  0.19404549  0.06152325  1
  I  I3_5  1  0.56077104  0.19404549  0.56152326  1
  I  I3_6  1  0.56077104  0.69404549  0.06152325  1
  I  I3_7  1  0.56077104  0.69404549  0.56152326  1
  F  F0_0  1  0.05728487  0.27933610  0.25855414  1
  F  F0_1  1  0.05728487  0.27933610  0.75855414  1
  F  F0_2  1  0.05728487  0.77933610  0.25855414  1
  F  F0_3  1  0.05728487  0.77933610  0.75855414  1
  F  F0_4  1  0.55728487  0.27933610  0.25855414  1
  F  F0_5  1  0.55728487  0.27933610  0.75855414  1
  F  F0_6  1  0.55728487  0.77933610  0.25855414  1
  F  F0_7  1  0.55728487  0.77933610  0.75855414  1
  F  F1_0  1  0.44271513  0.22066390  0.24144586  1
  F  F1_1  1  0.44271513  0.22066390  0.74144586  1
  F  F1_2  1  0.44271513  0.72066390  0.24144586  1
  F  F1_3  1  0.44271513  0.72066390  0.74144586  1
  F  F1_4  1  0.94271513  0.22066390  0.24144586  1
  F  F1_5  1  0.94271513  0.22066390  0.74144586  1
  F  F1_6  1  0.94271513  0.72066390  0.24144586  1
  F  F1_7  1  0.94271513  0.72066390  0.74144586  1
  F  F2_0  1  0.30728487  0.22066390  0.49144586  1
  F  F2_1  1  0.30728487  0.22066390  0.99144586  1
  F  F2_2  1  0.30728487  0.72066390  0.49144586  1
  F  F2_3  1  0.30728487  0.72066390  0.99144586  1
  F  F2_4  1  0.80728487  0.22066390  0.49144586  1
  F  F2_5  1  0.80728487  0.22066390  0.99144586  1
  F  F2_6  1  0.80728487  0.72066390  0.49144586  1
  F  F2_7  1  0.80728487  0.72066390  0.99144586  1
  F  F3_0  1  0.19271513  0.27933610  0.00855414  1
  F  F3_1  1  0.19271513  0.27933610  0.50855414  1
  F  F3_2  1  0.19271513  0.77933610  0.00855414  1
  F  F3_3  1  0.19271513  0.77933610  0.50855414  1
  F  F3_4  1  0.69271513  0.27933610  0.00855414  1
  F  F3_5  1  0.69271513  0.27933610  0.50855414  1
  F  F3_6  1  0.69271513  0.77933610  0.00855414  1
  F  F3_7  1  0.69271513  0.77933610  0.50855414  1
  F  F4_0  1  0.13840802  0.05095892  0.44915446  1
  F  F4_1  1  0.13840802  0.05095892  0.94915446  1
  F  F4_2  1  0.13840802  0.55095892  0.44915446  1
  F  F4_3  1  0.13840802  0.55095892  0.94915446  1
  F  F4_4  1  0.63840802  0.05095892  0.44915446  1
  F  F4_5  1  0.63840802  0.05095892  0.94915446  1
  F  F4_6  1  0.63840802  0.55095892  0.44915446  1
  F  F4_7  1  0.63840802  0.55095892  0.94915446  1
  F  F5_0  1  0.36159198  0.44904108  0.05084554  1
  F  F5_1  1  0.36159198  0.44904108  0.55084554  1
  F  F5_2  1  0.36159198  0.94904108  0.05084554  1
  F  F5_3  1  0.36159198  0.94904108  0.55084554  1
  F  F5_4  1  0.86159198  0.44904108  0.05084554  1
  F  F5_5  1  0.86159198  0.44904108  0.55084554  1
  F  F5_6  1  0.86159198  0.94904108  0.05084554  1
  F  F5_7  1  0.86159198  0.94904108  0.55084554  1
  F  F6_0  1  0.38840802  0.44904108  0.30084554  1
  F  F6_1  1  0.38840802  0.44904108  0.80084554  1
  F  F6_2  1  0.38840802  0.94904108  0.30084554  1
  F  F6_3  1  0.38840802  0.94904108  0.80084554  1
  F  F6_4  1  0.88840802  0.44904108  0.30084554  1
  F  F6_5  1  0.88840802  0.44904108  0.80084554  1
  F  F6_6  1  0.88840802  0.94904108  0.30084554  1
  F  F6_7  1  0.88840802  0.94904108  0.80084554  1
  F  F7_0  1  0.11159198  0.05095892  0.19915446  1
  F  F7_1  1  0.11159198  0.05095892  0.69915446  1
  F  F7_2  1  0.11159198  0.55095892  0.19915446  1
  F  F7_3  1  0.11159198  0.55095892  0.69915446  1
  F  F7_4  1  0.61159198  0.05095892  0.19915446  1
  F  F7_5  1  0.61159198  0.05095892  0.69915446  1
  F  F7_6  1  0.61159198  0.55095892  0.19915446  1
  F  F7_7  1  0.61159198  0.55095892  0.69915446  1
  F  F8_0  1  0.05065443  0.15576919  0.36263617  1
  F  F8_1  1  0.05065443  0.15576919  0.86263617  1
  F  F8_2  1  0.05065443  0.65576919  0.36263617  1
  F  F8_3  1  0.05065443  0.65576919  0.86263617  1
  F  F8_4  1  0.55065443  0.15576919  0.36263617  1
  F  F8_5  1  0.55065443  0.15576919  0.86263617  1
  F  F8_6  1  0.55065443  0.65576919  0.36263617  1
  F  F8_7  1  0.55065443  0.65576919  0.86263617  1
  F  F9_0  1  0.44934557  0.34423081  0.13736383  1
  F  F9_1  1  0.44934557  0.34423081  0.63736383  1
  F  F9_2  1  0.44934557  0.84423081  0.13736383  1
  F  F9_3  1  0.44934557  0.84423081  0.63736383  1
  F  F9_4  1  0.94934558  0.34423081  0.13736383  1
  F  F9_5  1  0.94934558  0.34423081  0.63736383  1
  F  F9_6  1  0.94934558  0.84423081  0.13736383  1
  F  F9_7  1  0.94934558  0.84423081  0.63736383  1
  F  F10_0  1  0.30065443  0.34423081  0.38736383  1
  F  F10_1  1  0.30065443  0.34423081  0.88736383  1
  F  F10_2  1  0.30065443  0.84423081  0.38736383  1
  F  F10_3  1  0.30065443  0.84423081  0.88736383  1
  F  F10_4  1  0.80065443  0.34423081  0.38736383  1
  F  F10_5  1  0.80065443  0.34423081  0.88736383  1
  F  F10_6  1  0.80065443  0.84423081  0.38736383  1
  F  F10_7  1  0.80065443  0.84423081  0.88736383  1
  F  F11_0  1  0.19934558  0.15576919  0.11263617  1
  F  F11_1  1  0.19934558  0.15576919  0.61263617  1
  F  F11_2  1  0.19934558  0.65576919  0.11263617  1
  F  F11_3  1  0.19934558  0.65576919  0.61263617  1
  F  F11_4  1  0.69934558  0.15576919  0.11263617  1
  F  F11_5  1  0.69934558  0.15576919  0.61263617  1
  F  F11_6  1  0.69934558  0.65576919  0.11263617  1
  F  F11_7  1  0.69934558  0.65576919  0.61263617  1
  F  F12_0  1  0.08162789  0.33360246  0.41904276  1
  F  F12_1  1  0.08162789  0.33360246  0.91904276  1
  F  F12_2  1  0.08162789  0.83360246  0.41904276  1
  F  F12_3  1  0.08162789  0.83360246  0.91904276  1
  F  F12_4  1  0.58162789  0.33360246  0.41904276  1
  F  F12_5  1  0.58162789  0.33360246  0.91904276  1
  F  F12_6  1  0.58162789  0.83360246  0.41904276  1
  F  F12_7  1  0.58162789  0.83360246  0.91904276  1
  F  F13_0  1  0.41837211  0.16639754  0.08095724  1
  F  F13_1  1  0.41837211  0.16639754  0.58095725  1
  F  F13_2  1  0.41837211  0.66639754  0.08095724  1
  F  F13_3  1  0.41837211  0.66639754  0.58095725  1
  F  F13_4  1  0.91837212  0.16639754  0.08095724  1
  F  F13_5  1  0.91837212  0.16639754  0.58095725  1
  F  F13_6  1  0.91837212  0.66639754  0.08095724  1
  F  F13_7  1  0.91837212  0.66639754  0.58095725  1
  F  F14_0  1  0.33162789  0.16639754  0.33095725  1
  F  F14_1  1  0.33162789  0.16639754  0.83095725  1
  F  F14_2  1  0.33162789  0.66639754  0.33095725  1
  F  F14_3  1  0.33162789  0.66639754  0.83095725  1
  F  F14_4  1  0.83162788  0.16639754  0.33095725  1
  F  F14_5  1  0.83162788  0.16639754  0.83095725  1
  F  F14_6  1  0.83162788  0.66639754  0.33095725  1
  F  F14_7  1  0.83162788  0.66639754  0.83095725  1
  F  F15_0  1  0.16837212  0.33360246  0.16904276  1
  F  F15_1  1  0.16837212  0.33360246  0.66904276  1
  F  F15_2  1  0.16837212  0.83360246  0.16904275  1
  F  F15_3  1  0.16837212  0.83360246  0.66904275  1
  F  F15_4  1  0.66837212  0.33360246  0.16904276  1
  F  F15_5  1  0.66837212  0.33360246  0.66904276  1
  F  F15_6  1  0.66837212  0.83360246  0.16904275  1
  F  F15_7  1  0.66837212  0.83360246  0.66904275  1
  F  F16_0  1  0.24375893  0.05562240  0.43998172  1
  F  F16_1  1  0.24375893  0.05562241  0.93998172  1
  F  F16_2  1  0.24375893  0.55562240  0.43998172  1
  F  F16_3  1  0.24375893  0.55562240  0.93998172  1
  F  F16_4  1  0.74375893  0.05562240  0.43998172  1
  F  F16_5  1  0.74375893  0.05562241  0.93998172  1
  F  F16_6  1  0.74375893  0.55562240  0.43998172  1
  F  F16_7  1  0.74375893  0.55562240  0.93998172  1
  F  F17_0  1  0.25624108  0.44437760  0.06001828  1
  F  F17_1  1  0.25624108  0.44437760  0.56001828  1
  F  F17_2  1  0.25624108  0.94437760  0.06001828  1
  F  F17_3  1  0.25624108  0.94437759  0.56001828  1
  F  F17_4  1  0.75624108  0.44437760  0.06001828  1
  F  F17_5  1  0.75624108  0.44437760  0.56001828  1
  F  F17_6  1  0.75624108  0.94437760  0.06001828  1
  F  F17_7  1  0.75624108  0.94437759  0.56001828  1
  F  F18_0  1  0.49375893  0.44437760  0.31001828  1
  F  F18_1  1  0.49375893  0.44437759  0.81001828  1
  F  F18_2  1  0.49375893  0.94437759  0.31001828  1
  F  F18_3  1  0.49375893  0.94437760  0.81001828  1
  F  F18_4  1  0.99375893  0.44437760  0.31001828  1
  F  F18_5  1  0.99375893  0.44437759  0.81001828  1
  F  F18_6  1  0.99375893  0.94437759  0.31001828  1
  F  F18_7  1  0.99375893  0.94437760  0.81001828  1
  F  F19_0  1  0.00624108  0.05562240  0.18998172  1
  F  F19_1  1  0.00624108  0.05562240  0.68998172  1
  F  F19_2  1  0.00624108  0.55562241  0.18998172  1
  F  F19_3  1  0.00624108  0.55562240  0.68998172  1
  F  F19_4  1  0.50624108  0.05562240  0.18998172  1
  F  F19_5  1  0.50624108  0.05562240  0.68998172  1
  F  F19_6  1  0.50624108  0.55562241  0.18998172  1
  F  F19_7  1  0.50624108  0.55562240  0.68998172  1
loop_
_geom_bond_atom_site_label_1
_geom_bond_atom_site_label_2
_geom_bond_distance
_geom_bond_site_symmetry_2
I0_0 Sn4_2 3.406181 1_545
I0_0 Sn2_0 3.445558 1_555
I0_0 Sn10_0 3.523396 1_555
I0_0 Sn11_0 3.606822 1_555
I0_0 Sn11_2 3.785087 1_555
I0_0 Sn10_2 3.862198 1_545
I0_0 Sn2_2 3.863245 1_545
I0_0 Sn4_0 3.998813 1_555
I0_0 I0_2 4.300424 1_545
I0_0 I0_2 4.300424 1_555
I0_1 Sn4_3 3.406181 1_545
I0_1 Sn2_1 3.445558 1_555
I0_1 Sn10_1 3.523396 1_555
I0_1 Sn11_1 3.606822 1_555
I0_1 Sn11_3 3.785087 1_555
I0_1 Sn10_3 3.862198 1_545
I0_1 Sn2_3 3.863245 1_545
I0_1 Sn4_1 3.998813 1_555
I0_1 I0_3 4.300424 1_555
I0_1 I0_3 4.300424 1_545
I0_2 Sn4_0 3.406181 1_555
I0_2 Sn2_2 3.445558 1_555
I0_2 Sn10_2 3.523396 1_555
I0_2 Sn11_2 3.606822 1_555
I0_2 Sn11_0 3.785087 1_565
I0_2 Sn10_0 3.862198 1_555
I0_2 Sn2_0 3.863245 1_555
I0_2 Sn4_2 3.998813 1_555
I0_3 Sn4_1 3.406181 1_555
I0_3 Sn2_3 3.445558 1_555
I0_3 Sn10_3 3.523396 1_555
I0_3 Sn11_3 3.606822 1_555
I0_3 Sn11_1 3.785087 1_565
I0_3 Sn10_1 3.862198 1_555
I0_3 Sn2_1 3.863245 1_555
I0_3 Sn4_3 3.998813 1_555
I0_4 Sn4_6 3.406181 1_545
I0_4 Sn2_4 3.445558 1_555
I0_4 Sn10_4 3.523396 1_555
I0_4 Sn11_4 3.606822 1_555
I0_4 Sn11_6 3.785087 1_555
I0_4 Sn10_6 3.862198 1_545
I0_4 Sn2_6 3.863245 1_545
I0_4 Sn4_4 3.998813 1_555
I0_4 I0_6 4.300424 1_545
I0_4 I0_6 4.300424 1_555
I0_5 Sn4_7 3.406181 1_545
I0_5 Sn2_5 3.445558 1_555
I0_5 Sn10_5 3.523396 1_555
I0_5 Sn11_5 3.606822 1_555
I0_5 Sn11_7 3.785087 1_555
I0_5 Sn10_7 3.862198 1_545
I0_5 Sn2_7 3.863245 1_545
I0_5 Sn4_5 3.998813 1_555
I0_5 I0_7 4.300424 1_555
I0_5 I0_7 4.300424 1_545
I0_6 Sn4_4 3.406181 1_555
I0_6 Sn2_6 3.445558 1_555
I0_6 Sn10_6 3.523396 1_555
I0_6 Sn11_6 3.606822 1_555
I0_6 Sn11_4 3.785087 1_565
I0_6 Sn10_4 3.862198 1_555
I0_6 Sn2_4 3.863245 1_555
I0_6 Sn4_6 3.998813 1_555
I0_7 Sn4_5 3.406181 1_555
I0_7 Sn2_7 3.445558 1_555
I0_7 Sn10_7 3.523396 1_555
I0_7 Sn11_7 3.606822 1_555
I0_7 Sn11_5 3.785087 1_565
I0_7 Sn10_5 3.862198 1_555
I0_7 Sn2_5 3.863245 1_555
I0_7 Sn4_7 3.998813 1_555
I1_0 Sn5_2 3.406181 1_555
I1_0 Sn3_0 3.445558 1_555
I1_0 Sn11_0 3.523396 1_555
I1_0 Sn10_0 3.606822 1_555
I1_0 Sn10_2 3.785087 1_545
I1_0 Sn11_2 3.862198 1_555
I1_0 Sn3_2 3.863245 1_555
I1_0 Sn5_0 3.998813 1_555
I1_0 I1_2 4.300424 1_545
I1_0 I1_2 4.300424 1_555
I1_1 Sn5_3 3.406181 1_555
I1_1 Sn3_1 3.445558 1_555
I1_1 Sn11_1 3.523396 1_555
I1_1 Sn10_1 3.606822 1_555
I1_1 Sn10_3 3.785087 1_545
I1_1 Sn11_3 3.862198 1_555
I1_1 Sn3_3 3.863245 1_555
I1_1 Sn5_1 3.998813 1_555
I1_1 I1_3 4.300424 1_545
I1_1 I1_3 4.300424 1_555
I1_2 Sn5_0 3.406181 1_565
I1_2 Sn3_2 3.445558 1_555
I1_2 Sn11_2 3.523396 1_555
I1_2 Sn10_2 3.606822 1_555
I1_2 Sn10_0 3.785087 1_555
I1_2 Sn11_0 3.862198 1_565
I1_2 Sn3_0 3.863245 1_565
I1_2 Sn5_2 3.998813 1_555
I1_3 Sn5_1 3.406181 1_565
I1_3 Sn3_3 3.445558 1_555
I1_3 Sn11_3 3.523396 1_555
I1_3 Sn10_3 3.606822 1_555
I1_3 Sn10_1 3.785087 1_555
I1_3 Sn11_1 3.862198 1_565
I1_3 Sn3_1 3.863245 1_565
I1_3 Sn5_3 3.998813 1_555
I1_4 Sn5_6 3.406181 1_555
I1_4 Sn3_4 3.445558 1_555
I1_4 Sn11_4 3.523396 1_555
I1_4 Sn10_4 3.606822 1_555
I1_4 Sn10_6 3.785087 1_545
I1_4 Sn11_6 3.862198 1_555
I1_4 Sn3_6 3.863245 1_555
I1_4 Sn5_4 3.998813 1_555
I1_4 I1_6 4.300424 1_545
I1_4 I1_6 4.300424 1_555
I1_5 Sn5_7 3.406181 1_555
I1_5 Sn3_5 3.445558 1_555
I1_5 Sn11_5 3.523396 1_555
I1_5 Sn10_5 3.606822 1_555
I1_5 Sn10_7 3.785087 1_545
I1_5 Sn11_7 3.862198 1_555
I1_5 Sn3_7 3.863245 1_555
I1_5 Sn5_5 3.998813 1_555
I1_5 I1_7 4.300424 1_555
I1_5 I1_7 4.300424 1_545
I1_6 Sn5_4 3.406181 1_565
I1_6 Sn3_6 3.445558 1_555
I1_6 Sn11_6 3.523396 1_555
I1_6 Sn10_6 3.606822 1_555
I1_6 Sn10_4 3.785087 1_555
I1_6 Sn11_4 3.862198 1_565
I1_6 Sn3_4 3.863245 1_565
I1_6 Sn5_6 3.998813 1_555
I1_7 Sn5_5 3.406181 1_565
I1_7 Sn3_7 3.445558 1_555
I1_7 Sn11_7 3.523396 1_555
I1_7 Sn10_7 3.606822 1_555
I1_7 Sn10_5 3.785087 1_555
I1_7 Sn11_5 3.862198 1_565
I1_7 Sn3_5 3.863245 1_565
I1_7 Sn5_7 3.998813 1_555
I2_0 Sn6_2 3.406181 1_555
I2_0 Sn0_0 3.445558 1_555
I2_0 Sn8_4 3.523396 1_555
I2_0 Sn9_1 3.606822 1_555
I2_0 Sn9_3 3.785087 1_545
I2_0 Sn8_6 3.862198 1_555
I2_0 Sn0_2 3.863245 1_555
I2_0 Sn6_0 3.998813 1_555
I2_0 I2_2 4.300424 1_555
I2_0 I2_2 4.300424 1_545
I2_1 Sn6_3 3.406181 1_555
I2_1 Sn0_1 3.445558 1_555
I2_1 Sn8_5 3.523396 1_555
I2_1 Sn9_0 3.606822 1_556
I2_1 Sn9_2 3.785087 1_546
I2_1 Sn8_7 3.862198 1_555
I2_1 Sn0_3 3.863245 1_555
I2_1 Sn6_1 3.998813 1_555
I2_1 I2_3 4.300424 1_545
I2_1 I2_3 4.300424 1_555
I2_2 Sn6_0 3.406181 1_565
I2_2 Sn0_2 3.445558 1_555
I2_2 Sn8_6 3.523396 1_555
I2_2 Sn9_3 3.606822 1_555
I2_2 Sn9_1 3.785087 1_555
I2_2 Sn8_4 3.862198 1_565
I2_2 Sn0_0 3.863245 1_565
I2_2 Sn6_2 3.998813 1_555
I2_3 Sn6_1 3.406181 1_565
I2_3 Sn0_3 3.445558 1_555
I2_3 Sn8_7 3.523396 1_555
I2_3 Sn9_2 3.606822 1_556
I2_3 Sn9_0 3.785087 1_556
I2_3 Sn8_5 3.862198 1_565
I2_3 Sn0_1 3.863245 1_565
I2_3 Sn6_3 3.998813 1_555
I2_4 Sn6_6 3.406181 1_555
I2_4 Sn0_4 3.445558 1_555
I2_4 Sn8_0 3.523396 1_655
I2_4 Sn9_5 3.606822 1_555
I2_4 Sn9_7 3.785087 1_545
I2_4 Sn8_2 3.862198 1_655
I2_4 Sn0_6 3.863245 1_555
I2_4 Sn6_4 3.998813 1_555
I2_4 I2_6 4.300424 1_555
I2_4 I2_6 4.300424 1_545
I2_5 Sn6_7 3.406181 1_555
I2_5 Sn0_5 3.445558 1_555
I2_5 Sn8_1 3.523396 1_655
I2_5 Sn9_4 3.606822 1_556
I2_5 Sn9_6 3.785087 1_546
I2_5 Sn8_3 3.862198 1_655
I2_5 Sn0_7 3.863245 1_555
I2_5 Sn6_5 3.998813 1_555
I2_5 I2_7 4.300424 1_545
I2_5 I2_7 4.300424 1_555
I2_6 Sn6_4 3.406181 1_565
I2_6 Sn0_6 3.445558 1_555
I2_6 Sn8_2 3.523396 1_655
I2_6 Sn9_7 3.606822 1_555
I2_6 Sn9_5 3.785087 1_555
I2_6 Sn8_0 3.862198 1_665
I2_6 Sn0_4 3.863245 1_565
I2_6 Sn6_6 3.998813 1_555
I2_7 Sn6_5 3.406181 1_565
I2_7 Sn0_7 3.445558 1_555
I2_7 Sn8_3 3.523396 1_655
I2_7 Sn9_6 3.606822 1_556
I2_7 Sn9_4 3.785087 1_556
I2_7 Sn8_1 3.862198 1_665
I2_7 Sn0_5 3.863245 1_565
I2_7 Sn6_7 3.998813 1_555
I3_0 Sn7_2 3.406181 1_545
I3_0 Sn1_0 3.445558 1_555
I3_0 Sn9_4 3.523396 1_455
I3_0 Sn8_1 3.606822 1_554
I3_0 Sn8_3 3.785087 1_554
I3_0 Sn9_6 3.862198 1_445
I3_0 Sn1_2 3.863245 1_545
I3_0 Sn7_0 3.998813 1_555
I3_0 I3_2 4.300424 1_555
I3_0 I3_2 4.300424 1_545
I3_1 Sn7_3 3.406181 1_545
I3_1 Sn1_1 3.445558 1_555
I3_1 Sn9_5 3.523396 1_455
I3_1 Sn8_0 3.606822 1_555
I3_1 Sn8_2 3.785087 1_555
I3_1 Sn9_7 3.862198 1_445
I3_1 Sn1_3 3.863245 1_545
I3_1 Sn7_1 3.998813 1_555
I3_1 I3_3 4.300424 1_545
I3_1 I3_3 4.300424 1_555
I3_2 Sn7_0 3.406181 1_555
I3_2 Sn1_2 3.445558 1_555
I3_2 Sn9_6 3.523396 1_455
I3_2 Sn8_3 3.606822 1_554
I3_2 Sn8_1 3.785087 1_564
I3_2 Sn9_4 3.862198 1_455
I3_2 Sn1_0 3.863245 1_555
I3_2 Sn7_2 3.998813 1_555
I3_3 Sn7_1 3.406181 1_555
I3_3 Sn1_3 3.445558 1_555
I3_3 Sn9_7 3.523396 1_455
I3_3 Sn8_2 3.606822 1_555
I3_3 Sn8_0 3.785087 1_565
I3_3 Sn9_5 3.862198 1_455
I3_3 Sn1_1 3.863245 1_555
I3_3 Sn7_3 3.998813 1_555
I3_4 Sn7_6 3.406181 1_545
I3_4 Sn1_4 3.445558 1_555
I3_4 Sn9_0 3.523396 1_555
I3_4 Sn8_5 3.606822 1_554
I3_4 Sn8_7 3.785087 1_554
I3_4 Sn9_2 3.862198 1_545
I3_4 Sn1_6 3.863245 1_545
I3_4 Sn7_4 3.998813 1_555
I3_4 I3_6 4.300424 1_545
I3_4 I3_6 4.300424 1_555
I3_5 Sn7_7 3.406181 1_545
I3_5 Sn1_5 3.445558 1_555
I3_5 Sn9_1 3.523396 1_555
I3_5 Sn8_4 3.606822 1_555
I3_5 Sn8_6 3.785087 1_555
I3_5 Sn9_3 3.862198 1_545
I3_5 Sn1_7 3.863245 1_545
I3_5 Sn7_5 3.998813 1_555
I3_5 I3_7 4.300424 1_545
I3_5 I3_7 4.300424 1_555
I3_6 Sn7_4 3.406181 1_555
I3_6 Sn1_6 3.445558 1_555
I3_6 Sn9_2 3.523396 1_555
I3_6 Sn8_7 3.606822 1_554
I3_6 Sn8_5 3.785087 1_564
I3_6 Sn9_0 3.862198 1_555
I3_6 Sn1_4 3.863245 1_555
I3_6 Sn7_6 3.998813 1_555
I3_7 Sn7_5 3.406181 1_555
I3_7 Sn1_7 3.445558 1_555
I3_7 Sn9_3 3.523396 1_555
I3_7 Sn8_6 3.606822 1_555
I3_7 Sn8_4 3.785087 1_565
I3_7 Sn9_1 3.862198 1_555
I3_7 Sn1_5 3.863245 1_555
I3_7 Sn7_7 3.998813 1_555
F0_0 Sn7_0 2.174741 1_555
F0_0 Sn2_0 2.182634 1_555
F0_0 F8_0 2.729732 1_555
F0_0 F7_2 2.768095 1_555
F0_0 F18_4 2.840753 1_455
F0_0 F19_2 2.843037 1_555
F0_0 I0_0 3.707712 1_555
F0_1 Sn7_1 2.174741 1_555
F0_1 Sn2_1 2.182634 1_555
F0_1 F8_1 2.729732 1_555
F0_1 F7_3 2.768095 1_555
F0_1 F18_5 2.840753 1_455
F0_1 F19_3 2.843037 1_555
F0_1 I0_1 3.707712 1_555
F0_2 Sn7_2 2.174741 1_555
F0_2 Sn2_2 2.182634 1_555
F0_2 F8_2 2.729732 1_555
F0_2 F7_0 2.768095 1_565
F0_2 F18_6 2.840753 1_455
F0_2 F19_0 2.843037 1_565
F0_2 I0_2 3.707712 1_555
F0_3 Sn7_3 2.174741 1_555
F0_3 Sn2_3 2.182634 1_555
F0_3 F8_3 2.729732 1_555
F0_3 F7_1 2.768095 1_565
F0_3 F18_7 2.840753 1_455
F0_3 F19_1 2.843037 1_565
F0_3 I0_3 3.707712 1_555
F0_4 Sn7_4 2.174741 1_555
F0_4 Sn2_4 2.182634 1_555
F0_4 F8_4 2.729732 1_555
F0_4 F7_6 2.768095 1_555
F0_4 F18_0 2.840753 1_555
F0_4 F19_6 2.843037 1_555
F0_4 I0_4 3.707712 1_555
F0_5 Sn7_5 2.174741 1_555
F0_5 Sn2_5 2.182634 1_555
F0_5 F8_5 2.729732 1_555
F0_5 F7_7 2.768095 1_555
F0_5 F18_1 2.840753 1_555
F0_5 F19_7 2.843037 1_555
F0_5 I0_5 3.707712 1_555
F0_6 Sn7_6 2.174741 1_555
F0_6 Sn2_6 2.182634 1_555
F0_6 F8_6 2.729732 1_555
F0_6 F7_4 2.768095 1_565
F0_6 F18_2 2.840753 1_555
F0_6 F19_4 2.843037 1_565
F0_6 I0_6 3.707712 1_555
F0_7 Sn7_7 2.174741 1_555
F0_7 Sn2_7 2.182634 1_555
F0_7 F8_7 2.729732 1_555
F0_7 F7_5 2.768095 1_565
F0_7 F18_3 2.840753 1_555
F0_7 F19_5 2.843037 1_565
F0_7 I0_7 3.707712 1_555
F1_0 Sn6_0 2.174741 1_555
F1_0 Sn3_0 2.182634 1_555
F1_0 F9_0 2.729732 1_555
F1_0 F6_2 2.768095 1_545
F1_0 I1_0 3.707712 1_555
F1_1 Sn6_1 2.174741 1_555
F1_1 Sn3_1 2.182634 1_555
F1_1 F9_1 2.729732 1_555
F1_1 F6_3 2.768095 1_545
F1_1 I1_1 3.707712 1_555
F1_2 Sn6_2 2.174741 1_555
F1_2 Sn3_2 2.182634 1_555
F1_2 F9_2 2.729732 1_555
F1_2 F6_0 2.768095 1_555
F1_2 I1_2 3.707712 1_555
F1_3 Sn6_3 2.174741 1_555
F1_3 Sn3_3 2.182634 1_555
F1_3 F9_3 2.729732 1_555
F1_3 F6_1 2.768095 1_555
F1_3 I1_3 3.707712 1_555
F1_4 Sn6_4 2.174741 1_555
F1_4 Sn3_4 2.182634 1_555
F1_4 F9_4 2.729732 1_555
F1_4 F6_6 2.768095 1_545
F1_4 I1_4 3.707712 1_555
F1_5 Sn6_5 2.174741 1_555
F1_5 Sn3_5 2.182634 1_555
F1_5 F9_5 2.729732 1_555
F1_5 F6_7 2.768095 1_545
F1_5 I1_5 3.707712 1_555
F1_6 Sn6_6 2.174741 1_555
F1_6 Sn3_6 2.182634 1_555
F1_6 F9_6 2.729732 1_555
F1_6 F6_4 2.768095 1_555
F1_6 I1_6 3.707712 1_555
F1_7 Sn6_7 2.174741 1_555
F1_7 Sn3_7 2.182634 1_555
F1_7 F9_7 2.729732 1_555
F1_7 F6_5 2.768095 1_555
F1_7 I1_7 3.707712 1_555
F2_0 Sn5_1 2.174741 1_555
F2_0 Sn0_0 2.182634 1_555
F2_0 F5_3 2.768095 1_545
F2_0 I2_0 3.707712 1_555
F2_1 Sn5_0 2.174741 1_556
F2_1 Sn0_1 2.182634 1_555
F2_1 F5_2 2.768095 1_546
F2_1 I2_1 3.707712 1_555
F2_2 Sn5_3 2.174741 1_555
F2_2 Sn0_2 2.182634 1_555
F2_2 F5_1 2.768095 1_555
F2_2 I2_2 3.707712 1_555
F2_3 Sn5_2 2.174741 1_556
F2_3 Sn0_3 2.182634 1_555
F2_3 F5_0 2.768095 1_556
F2_3 I2_3 3.707712 1_555
F2_4 Sn5_5 2.174741 1_555
F2_4 Sn0_4 2.182634 1_555
F2_4 F5_7 2.768095 1_545
F2_4 I2_4 3.707712 1_555
F2_5 Sn5_4 2.174741 1_556
F2_5 Sn0_5 2.182634 1_555
F2_5 F5_6 2.768095 1_546
F2_5 I2_5 3.707712 1_555
F2_6 Sn5_7 2.174741 1_555
F2_6 Sn0_6 2.182634 1_555
F2_6 F5_5 2.768095 1_555
F2_6 I2_6 3.707712 1_555
F2_7 Sn5_6 2.174741 1_556
F2_7 Sn0_7 2.182634 1_555
F2_7 F5_4 2.768095 1_556
F2_7 I2_7 3.707712 1_555
F3_0 Sn4_1 2.174741 1_554
F3_0 Sn1_0 2.182634 1_555
F3_0 F4_3 2.768095 1_554
F3_0 I3_0 3.707712 1_555
F3_1 Sn4_0 2.174741 1_555
F3_1 Sn1_1 2.182634 1_555
F3_1 F4_2 2.768095 1_555
F3_1 I3_1 3.707712 1_555
F3_2 Sn4_3 2.174741 1_554
F3_2 Sn1_2 2.182634 1_555
F3_2 F4_1 2.768095 1_564
F3_2 I3_2 3.707712 1_555
F3_3 Sn4_2 2.174741 1_555
F3_3 Sn1_3 2.182634 1_555
F3_3 F4_0 2.768095 1_565
F3_3 I3_3 3.707712 1_555
F3_4 Sn4_5 2.174741 1_554
F3_4 Sn1_4 2.182634 1_555
F3_4 F4_7 2.768095 1_554
F3_4 I3_4 3.707712 1_555
F3_5 Sn4_4 2.174741 1_555
F3_5 Sn1_5 2.182634 1_555
F3_5 F4_6 2.768095 1_555
F3_5 I3_5 3.707712 1_555
F3_6 Sn4_7 2.174741 1_554
F3_6 Sn1_6 2.182634 1_555
F3_6 F4_5 2.768095 1_564
F3_6 I3_6 3.707712 1_555
F3_7 Sn4_6 2.174741 1_555
F3_7 Sn1_7 2.182634 1_555
F3_7 F4_4 2.768095 1_565
F3_7 I3_7 3.707712 1_555
F4_0 Sn4_2 2.182619 1_545
F4_0 Sn8_0 2.206018 1_555
F4_0 Sn4_0 3.025298 1_555
F4_0 I0_0 3.832992 1_555
F4_1 Sn4_3 2.182619 1_545
F4_1 Sn8_1 2.206018 1_555
F4_1 Sn4_1 3.025298 1_555
F4_1 I0_1 3.832992 1_555
F4_2 Sn4_0 2.182619 1_555
F4_2 Sn8_2 2.206018 1_555
F4_2 Sn4_2 3.025298 1_555
F4_2 I0_2 3.832992 1_555
F4_3 Sn4_1 2.182619 1_555
F4_3 Sn8_3 2.206018 1_555
F4_3 Sn4_3 3.025298 1_555
F4_3 I0_3 3.832992 1_555
F4_4 Sn4_6 2.182619 1_545
F4_4 Sn8_4 2.206018 1_555
F4_4 Sn4_4 3.025298 1_555
F4_4 I0_4 3.832992 1_555
F4_5 Sn4_7 2.182619 1_545
F4_5 Sn8_5 2.206018 1_555
F4_5 Sn4_5 3.025298 1_555
F4_5 I0_5 3.832992 1_555
F4_6 Sn4_4 2.182619 1_555
F4_6 Sn8_6 2.206018 1_555
F4_6 Sn4_6 3.025298 1_555
F4_6 I0_6 3.832992 1_555
F4_7 Sn4_5 2.182619 1_555
F4_7 Sn8_7 2.206018 1_555
F4_7 Sn4_7 3.025298 1_555
F4_7 I0_7 3.832992 1_555
F5_0 Sn5_2 2.182619 1_555
F5_0 Sn9_0 2.206018 1_555
F5_0 Sn5_0 3.025298 1_555
F5_0 I1_0 3.832992 1_555
F5_1 Sn5_3 2.182619 1_555
F5_1 Sn9_1 2.206018 1_555
F5_1 Sn5_1 3.025298 1_555
F5_1 I1_1 3.832992 1_555
F5_2 Sn5_0 2.182619 1_565
F5_2 Sn9_2 2.206018 1_555
F5_2 Sn5_2 3.025298 1_555
F5_2 I1_2 3.832992 1_555
F5_3 Sn5_1 2.182619 1_565
F5_3 Sn9_3 2.206018 1_555
F5_3 Sn5_3 3.025298 1_555
F5_3 I1_3 3.832992 1_555
F5_4 Sn5_6 2.182619 1_555
F5_4 Sn9_4 2.206018 1_555
F5_4 Sn5_4 3.025298 1_555
F5_4 I1_4 3.832992 1_555
F5_5 Sn5_7 2.182619 1_555
F5_5 Sn9_5 2.206018 1_555
F5_5 Sn5_5 3.025298 1_555
F5_5 I1_5 3.832992 1_555
F5_6 Sn5_4 2.182619 1_565
F5_6 Sn9_6 2.206018 1_555
F5_6 Sn5_6 3.025298 1_555
F5_6 I1_6 3.832992 1_555
F5_7 Sn5_5 2.182619 1_565
F5_7 Sn9_7 2.206018 1_555
F5_7 Sn5_7 3.025298 1_555
F5_7 I1_7 3.832992 1_555
F6_0 Sn6_2 2.182619 1_555
F6_0 Sn10_0 2.206018 1_555
F6_0 Sn6_0 3.025298 1_555
F6_0 I2_0 3.832992 1_555
F6_1 Sn6_3 2.182619 1_555
F6_1 Sn10_1 2.206018 1_555
F6_1 Sn6_1 3.025298 1_555
F6_1 I2_1 3.832992 1_555
F6_2 Sn6_0 2.182619 1_565
F6_2 Sn10_2 2.206018 1_555
F6_2 Sn6_2 3.025298 1_555
F6_2 I2_2 3.832992 1_555
F6_3 Sn6_1 2.182619 1_565
F6_3 Sn10_3 2.206018 1_555
F6_3 Sn6_3 3.025298 1_555
F6_3 I2_3 3.832992 1_555
F6_4 Sn6_6 2.182619 1_555
F6_4 Sn10_4 2.206018 1_555
F6_4 Sn6_4 3.025298 1_555
F6_4 I2_4 3.832992 1_555
F6_5 Sn6_7 2.182619 1_555
F6_5 Sn10_5 2.206018 1_555
F6_5 Sn6_5 3.025298 1_555
F6_5 I2_5 3.832992 1_555
F6_6 Sn6_4 2.182619 1_565
F6_6 Sn10_6 2.206018 1_555
F6_6 Sn6_6 3.025298 1_555
F6_6 I2_6 3.832992 1_555
F6_7 Sn6_5 2.182619 1_565
F6_7 Sn10_7 2.206018 1_555
F6_7 Sn6_7 3.025298 1_555
F6_7 I2_7 3.832992 1_555
F7_0 Sn7_2 2.182619 1_545
F7_0 Sn11_0 2.206018 1_555
F7_0 Sn7_0 3.025298 1_555
F7_0 I3_0 3.832992 1_555
F7_1 Sn7_3 2.182619 1_545
F7_1 Sn11_1 2.206018 1_555
F7_1 Sn7_1 3.025298 1_555
F7_1 I3_1 3.832992 1_555
F7_2 Sn7_0 2.182619 1_555
F7_2 Sn11_2 2.206018 1_555
F7_2 Sn7_2 3.025298 1_555
F7_2 I3_2 3.832992 1_555
F7_3 Sn7_1 2.182619 1_555
F7_3 Sn11_3 2.206018 1_555
F7_3 Sn7_3 3.025298 1_555
F7_3 I3_3 3.832992 1_555
F7_4 Sn7_6 2.182619 1_545
F7_4 Sn11_4 2.206018 1_555
F7_4 Sn7_4 3.025298 1_555
F7_4 I3_4 3.832992 1_555
F7_5 Sn7_7 2.182619 1_545
F7_5 Sn11_5 2.206018 1_555
F7_5 Sn7_5 3.025298 1_555
F7_5 I3_5 3.832992 1_555
F7_6 Sn7_4 2.182619 1_555
F7_6 Sn11_6 2.206018 1_555
F7_6 Sn7_6 3.025298 1_555
F7_6 I3_6 3.832992 1_555
F7_7 Sn7_5 2.182619 1_555
F7_7 Sn11_7 2.206018 1_555
F7_7 Sn7_7 3.025298 1_555
F7_7 I3_7 3.832992 1_555
F8_0 Sn2_0 2.186177 1_555
F8_0 Sn8_0 2.205726 1_555
F8_0 Sn2_2 2.988572 1_545
F8_0 I0_0 3.843912 1_555
F8_1 Sn2_1 2.186177 1_555
F8_1 Sn8_1 2.205726 1_555
F8_1 Sn2_3 2.988572 1_545
F8_1 I0_1 3.843912 1_555
F8_2 Sn2_2 2.186177 1_555
F8_2 Sn8_2 2.205726 1_555
F8_2 Sn2_0 2.988572 1_555
F8_2 I0_2 3.843912 1_555
F8_3 Sn2_3 2.186177 1_555
F8_3 Sn8_3 2.205726 1_555
F8_3 Sn2_1 2.988572 1_555
F8_3 I0_3 3.843912 1_555
F8_4 Sn2_4 2.186177 1_555
F8_4 Sn8_4 2.205726 1_555
F8_4 Sn2_6 2.988572 1_545
F8_4 I0_4 3.843912 1_555
F8_5 Sn2_5 2.186177 1_555
F8_5 Sn8_5 2.205726 1_555
F8_5 Sn2_7 2.988572 1_545
F8_5 I0_5 3.843912 1_555
F8_6 Sn2_6 2.186177 1_555
F8_6 Sn8_6 2.205726 1_555
F8_6 Sn2_4 2.988572 1_555
F8_6 I0_6 3.843912 1_555
F8_7 Sn2_7 2.186177 1_555
F8_7 Sn8_7 2.205726 1_555
F8_7 Sn2_5 2.988572 1_555
F8_7 I0_7 3.843912 1_555
F9_0 Sn3_0 2.186177 1_555
F9_0 Sn9_0 2.205726 1_555
F9_0 Sn3_2 2.988572 1_555
F9_0 I1_0 3.843912 1_555
F9_1 Sn3_1 2.186177 1_555
F9_1 Sn9_1 2.205726 1_555
F9_1 Sn3_3 2.988572 1_555
F9_1 I1_1 3.843912 1_555
F9_2 Sn3_2 2.186177 1_555
F9_2 Sn9_2 2.205726 1_555
F9_2 Sn3_0 2.988572 1_565
F9_2 I1_2 3.843912 1_555
F9_3 Sn3_3 2.186177 1_555
F9_3 Sn9_3 2.205726 1_555
F9_3 Sn3_1 2.988572 1_565
F9_3 I1_3 3.843912 1_555
F9_4 Sn3_4 2.186177 1_555
F9_4 Sn9_4 2.205726 1_555
F9_4 Sn3_6 2.988572 1_555
F9_4 I1_4 3.843912 1_555
F9_5 Sn3_5 2.186177 1_555
F9_5 Sn9_5 2.205726 1_555
F9_5 Sn3_7 2.988572 1_555
F9_5 I1_5 3.843912 1_555
F9_6 Sn3_6 2.186177 1_555
F9_6 Sn9_6 2.205726 1_555
F9_6 Sn3_4 2.988572 1_565
F9_6 I1_6 3.843912 1_555
F9_7 Sn3_7 2.186177 1_555
F9_7 Sn9_7 2.205726 1_555
F9_7 Sn3_5 2.988572 1_565
F9_7 I1_7 3.843912 1_555
F10_0 Sn0_0 2.186177 1_555
F10_0 Sn10_0 2.205726 1_555
F10_0 F14_0 2.638085 1_555
F10_0 F2_0 2.729732 1_555
F10_0 F14_2 2.821350 1_555
F10_0 F16_0 2.850727 1_555
F10_0 Sn0_2 2.988572 1_555
F10_0 F16_2 3.052411 1_555
F10_0 I2_0 3.843912 1_555
F10_1 Sn0_1 2.186177 1_555
F10_1 Sn10_1 2.205726 1_555
F10_1 F14_1 2.638085 1_555
F10_1 F2_1 2.729732 1_555
F10_1 F14_3 2.821350 1_555
F10_1 F16_1 2.850727 1_555
F10_1 Sn0_3 2.988572 1_555
F10_1 F16_3 3.052411 1_555
F10_1 I2_1 3.843912 1_555
F10_2 Sn0_2 2.186177 1_555
F10_2 Sn10_2 2.205726 1_555
F10_2 F14_2 2.638085 1_555
F10_2 F2_2 2.729732 1_555
F10_2 F14_0 2.821350 1_565
F10_2 F16_2 2.850727 1_555
F10_2 Sn0_0 2.988572 1_565
F10_2 F16_0 3.052411 1_565
F10_2 I2_2 3.843912 1_555
F10_3 Sn0_3 2.186177 1_555
F10_3 Sn10_3 2.205726 1_555
F10_3 F14_3 2.638085 1_555
F10_3 F2_3 2.729732 1_555
F10_3 F14_1 2.821350 1_565
F10_3 F16_3 2.850727 1_555
F10_3 Sn0_1 2.988572 1_565
F10_3 F16_1 3.052411 1_565
F10_3 I2_3 3.843912 1_555
F10_4 Sn0_4 2.186177 1_555
F10_4 Sn10_4 2.205726 1_555
F10_4 F14_4 2.638085 1_555
F10_4 F2_4 2.729732 1_555
F10_4 F14_6 2.821350 1_555
F10_4 F16_4 2.850727 1_555
F10_4 Sn0_6 2.988572 1_555
F10_4 F16_6 3.052411 1_555
F10_4 I2_4 3.843912 1_555
F10_5 Sn0_5 2.186177 1_555
F10_5 Sn10_5 2.205726 1_555
F10_5 F14_5 2.638085 1_555
F10_5 F2_5 2.729732 1_555
F10_5 F14_7 2.821350 1_555
F10_5 F16_5 2.850727 1_555
F10_5 Sn0_7 2.988572 1_555
F10_5 F16_7 3.052411 1_555
F10_5 I2_5 3.843912 1_555
F10_6 Sn0_6 2.186177 1_555
F10_6 Sn10_6 2.205726 1_555
F10_6 F14_6 2.638085 1_555
F10_6 F2_6 2.729732 1_555
F10_6 F14_4 2.821350 1_565
F10_6 F16_6 2.850727 1_555
F10_6 Sn0_4 2.988572 1_565
F10_6 F16_4 3.052411 1_565
F10_6 I2_6 3.843912 1_555
F10_7 Sn0_7 2.186177 1_555
F10_7 Sn10_7 2.205726 1_555
F10_7 F14_7 2.638085 1_555
F10_7 F2_7 2.729732 1_555
F10_7 F14_5 2.821350 1_565
F10_7 F16_7 2.850727 1_555
F10_7 Sn0_5 2.988572 1_565
F10_7 F16_5 3.052411 1_565
F10_7 I2_7 3.843912 1_555
F11_0 Sn1_0 2.186177 1_555
F11_0 Sn11_0 2.205726 1_555
F11_0 F15_0 2.638085 1_555
F11_0 F3_0 2.729732 1_555
F11_0 F15_2 2.821350 1_545
F11_0 F17_0 2.850727 1_555
F11_0 Sn1_2 2.988572 1_545
F11_0 F17_2 3.052411 1_545
F11_0 I3_0 3.843912 1_555
F11_1 Sn1_1 2.186177 1_555
F11_1 Sn11_1 2.205726 1_555
F11_1 F15_1 2.638085 1_555
F11_1 F3_1 2.729732 1_555
F11_1 F15_3 2.821350 1_545
F11_1 F17_1 2.850727 1_555
F11_1 Sn1_3 2.988572 1_545
F11_1 F17_3 3.052411 1_545
F11_1 I3_1 3.843912 1_555
F11_2 Sn1_2 2.186177 1_555
F11_2 Sn11_2 2.205726 1_555
F11_2 F15_2 2.638085 1_555
F11_2 F3_2 2.729732 1_555
F11_2 F15_0 2.821350 1_555
F11_2 F17_2 2.850727 1_555
F11_2 Sn1_0 2.988572 1_555
F11_2 F17_0 3.052411 1_555
F11_2 I3_2 3.843912 1_555
F11_3 Sn1_3 2.186177 1_555
F11_3 Sn11_3 2.205726 1_555
F11_3 F15_3 2.638085 1_555
F11_3 F3_3 2.729732 1_555
F11_3 F15_1 2.821350 1_555
F11_3 F17_3 2.850727 1_555
F11_3 Sn1_1 2.988572 1_555
F11_3 F17_1 3.052411 1_555
F11_3 I3_3 3.843912 1_555
F11_4 Sn1_4 2.186177 1_555
F11_4 Sn11_4 2.205726 1_555
F11_4 F15_4 2.638085 1_555
F11_4 F3_4 2.729732 1_555
F11_4 F15_6 2.821350 1_545
F11_4 F17_4 2.850727 1_555
F11_4 Sn1_6 2.988572 1_545
F11_4 F17_6 3.052411 1_545
F11_4 I3_4 3.843912 1_555
F11_5 Sn1_5 2.186177 1_555
F11_5 Sn11_5 2.205726 1_555
F11_5 F15_5 2.638085 1_555
F11_5 F3_5 2.729732 1_555
F11_5 F15_7 2.821350 1_545
F11_5 F17_5 2.850727 1_555
F11_5 Sn1_7 2.988572 1_545
F11_5 F17_7 3.052411 1_545
F11_5 I3_5 3.843912 1_555
F11_6 Sn1_6 2.186177 1_555
F11_6 Sn11_6 2.205726 1_555
F11_6 F15_6 2.638085 1_555
F11_6 F3_6 2.729732 1_555
F11_6 F15_4 2.821350 1_555
F11_6 F17_6 2.850727 1_555
F11_6 Sn1_4 2.988572 1_555
F11_6 F17_4 3.052411 1_555
F11_6 I3_6 3.843912 1_555
F11_7 Sn1_7 2.186177 1_555
F11_7 Sn11_7 2.205726 1_555
F11_7 F15_7 2.638085 1_555
F11_7 F3_7 2.729732 1_555
F11_7 F15_5 2.821350 1_555
F11_7 F17_7 2.850727 1_555
F11_7 Sn1_5 2.988572 1_555
F11_7 F17_5 3.052411 1_555
F11_7 I3_7 3.843912 1_555
F12_0 Sn8_0 2.177182 1_555
F12_0 Sn8_2 2.586834 1_555
F12_0 F8_0 2.638085 1_555
F12_0 F4_2 2.715127 1_555
F12_0 F4_0 2.733304 1_555
F12_0 Sn2_0 2.752059 1_555
F12_0 F8_2 2.821350 1_555
F12_0 Sn4_0 2.829008 1_555
F12_0 I2_4 3.736563 1_455
F12_0 I3_1 3.764920 1_555
F12_1 Sn8_1 2.177182 1_555
F12_1 Sn8_3 2.586834 1_555
F12_1 F8_1 2.638085 1_555
F12_1 F4_3 2.715127 1_555
F12_1 F4_1 2.733304 1_555
F12_1 Sn2_1 2.752059 1_555
F12_1 F8_3 2.821350 1_555
F12_1 Sn4_1 2.829008 1_555
F12_1 I2_5 3.736563 1_455
F12_1 I3_0 3.764920 1_556
F12_2 Sn8_2 2.177182 1_555
F12_2 Sn8_0 2.586834 1_565
F12_2 F8_2 2.638085 1_555
F12_2 F4_0 2.715127 1_565
F12_2 F4_2 2.733304 1_555
F12_2 Sn2_2 2.752059 1_555
F12_2 F8_0 2.821350 1_565
F12_2 Sn4_2 2.829008 1_555
F12_2 I2_6 3.736563 1_455
F12_2 I3_3 3.764920 1_555
F12_3 Sn8_3 2.177182 1_555
F12_3 Sn8_1 2.586834 1_565
F12_3 F8_3 2.638085 1_555
F12_3 F4_1 2.715127 1_565
F12_3 F4_3 2.733304 1_555
F12_3 Sn2_3 2.752059 1_555
F12_3 F8_1 2.821350 1_565
F12_3 Sn4_3 2.829008 1_555
F12_3 I2_7 3.736563 1_455
F12_3 I3_2 3.764920 1_556
F12_4 Sn8_4 2.177182 1_555
F12_4 Sn8_6 2.586834 1_555
F12_4 F8_4 2.638085 1_555
F12_4 F4_6 2.715127 1_555
F12_4 F4_4 2.733304 1_555
F12_4 Sn2_4 2.752059 1_555
F12_4 F8_6 2.821350 1_555
F12_4 Sn4_4 2.829008 1_555
F12_4 I2_0 3.736563 1_555
F12_4 I3_5 3.764920 1_555
F12_5 Sn8_5 2.177182 1_555
F12_5 Sn8_7 2.586834 1_555
F12_5 F8_5 2.638085 1_555
F12_5 F4_7 2.715127 1_555
F12_5 F4_5 2.733304 1_555
F12_5 Sn2_5 2.752059 1_555
F12_5 F8_7 2.821350 1_555
F12_5 Sn4_5 2.829008 1_555
F12_5 I2_1 3.736563 1_555
F12_5 I3_4 3.764920 1_556
F12_6 Sn8_6 2.177182 1_555
F12_6 Sn8_4 2.586834 1_565
F12_6 F8_6 2.638085 1_555
F12_6 F4_4 2.715127 1_565
F12_6 F4_6 2.733304 1_555
F12_6 Sn2_6 2.752059 1_555
F12_6 F8_4 2.821350 1_565
F12_6 Sn4_6 2.829008 1_555
F12_6 I2_2 3.736563 1_555
F12_6 I3_7 3.764920 1_555
F12_7 Sn8_7 2.177182 1_555
F12_7 Sn8_5 2.586834 1_565
F12_7 F8_7 2.638085 1_555
F12_7 F4_5 2.715127 1_565
F12_7 F4_7 2.733304 1_555
F12_7 Sn2_7 2.752059 1_555
F12_7 F8_5 2.821350 1_565
F12_7 Sn4_7 2.829008 1_555
F12_7 I2_3 3.736563 1_555
F12_7 I3_6 3.764920 1_556
F13_0 Sn9_0 2.177182 1_555
F13_0 Sn9_2 2.586834 1_545
F13_0 F9_0 2.638085 1_555
F13_0 F5_2 2.715127 1_545
F13_0 F5_0 2.733304 1_555
F13_0 Sn3_0 2.752059 1_555
F13_0 F9_2 2.821350 1_545
F13_0 Sn5_0 2.829008 1_555
F13_0 I3_4 3.736563 1_555
F13_0 I2_1 3.764920 1_554
F13_1 Sn9_1 2.177182 1_555
F13_1 Sn9_3 2.586834 1_545
F13_1 F9_1 2.638085 1_555
F13_1 F5_3 2.715127 1_545
F13_1 F5_1 2.733304 1_555
F13_1 Sn3_1 2.752059 1_555
F13_1 F9_3 2.821350 1_545
F13_1 Sn5_1 2.829008 1_555
F13_1 I3_5 3.736563 1_555
F13_1 I2_0 3.764920 1_555
F13_2 Sn9_2 2.177182 1_555
F13_2 Sn9_0 2.586834 1_555
F13_2 F9_2 2.638085 1_555
F13_2 F5_0 2.715127 1_555
F13_2 F5_2 2.733304 1_555
F13_2 Sn3_2 2.752059 1_555
F13_2 F9_0 2.821350 1_555
F13_2 Sn5_2 2.829008 1_555
F13_2 I3_6 3.736563 1_555
F13_2 I2_3 3.764920 1_554
F13_3 Sn9_3 2.177182 1_555
F13_3 Sn9_1 2.586834 1_555
F13_3 F9_3 2.638085 1_555
F13_3 F5_1 2.715127 1_555
F13_3 F5_3 2.733304 1_555
F13_3 Sn3_3 2.752059 1_555
F13_3 F9_1 2.821350 1_555
F13_3 Sn5_3 2.829008 1_555
F13_3 I3_7 3.736563 1_555
F13_3 I2_2 3.764920 1_555
F13_4 Sn9_4 2.177182 1_555
F13_4 Sn9_6 2.586834 1_545
F13_4 F9_4 2.638085 1_555
F13_4 F5_6 2.715127 1_545
F13_4 F5_4 2.733304 1_555
F13_4 Sn3_4 2.752059 1_555
F13_4 F9_6 2.821350 1_545
F13_4 Sn5_4 2.829008 1_555
F13_4 I3_0 3.736563 1_655
F13_4 I2_5 3.764920 1_554
F13_5 Sn9_5 2.177182 1_555
F13_5 Sn9_7 2.586834 1_545
F13_5 F9_5 2.638085 1_555
F13_5 F5_7 2.715127 1_545
F13_5 F5_5 2.733304 1_555
F13_5 Sn3_5 2.752059 1_555
F13_5 F9_7 2.821350 1_545
F13_5 Sn5_5 2.829008 1_555
F13_5 I3_1 3.736563 1_655
F13_5 I2_4 3.764920 1_555
F13_6 Sn9_6 2.177182 1_555
F13_6 Sn9_4 2.586834 1_555
F13_6 F9_6 2.638085 1_555
F13_6 F5_4 2.715127 1_555
F13_6 F5_6 2.733304 1_555
F13_6 Sn3_6 2.752059 1_555
F13_6 F9_4 2.821350 1_555
F13_6 Sn5_6 2.829008 1_555
F13_6 I3_2 3.736563 1_655
F13_6 I2_7 3.764920 1_554
F13_7 Sn9_7 2.177182 1_555
F13_7 Sn9_5 2.586834 1_555
F13_7 F9_7 2.638085 1_555
F13_7 F5_5 2.715127 1_555
F13_7 F5_7 2.733304 1_555
F13_7 Sn3_7 2.752059 1_555
F13_7 F9_5 2.821350 1_555
F13_7 Sn5_7 2.829008 1_555
F13_7 I3_3 3.736563 1_655
F13_7 I2_6 3.764920 1_555
F14_0 Sn10_0 2.177182 1_555
F14_0 Sn10_2 2.586834 1_545
F14_0 F6_2 2.715127 1_545
F14_0 F6_0 2.733304 1_555
F14_0 Sn0_0 2.752059 1_555
F14_0 Sn6_0 2.829008 1_555
F14_0 I0_0 3.736563 1_555
F14_0 I1_0 3.764920 1_555
F14_1 Sn10_1 2.177182 1_555
F14_1 Sn10_3 2.586834 1_545
F14_1 F6_3 2.715127 1_545
F14_1 F6_1 2.733304 1_555
F14_1 Sn0_1 2.752059 1_555
F14_1 Sn6_1 2.829008 1_555
F14_1 I0_1 3.736563 1_555
F14_1 I1_1 3.764920 1_555
F14_2 Sn10_2 2.177182 1_555
F14_2 Sn10_0 2.586834 1_555
F14_2 F6_0 2.715127 1_555
F14_2 F6_2 2.733304 1_555
F14_2 Sn0_2 2.752059 1_555
F14_2 Sn6_2 2.829008 1_555
F14_2 I0_2 3.736563 1_555
F14_2 I1_2 3.764920 1_555
F14_3 Sn10_3 2.177182 1_555
F14_3 Sn10_1 2.586834 1_555
F14_3 F6_1 2.715127 1_555
F14_3 F6_3 2.733304 1_555
F14_3 Sn0_3 2.752059 1_555
F14_3 Sn6_3 2.829008 1_555
F14_3 I0_3 3.736563 1_555
F14_3 I1_3 3.764920 1_555
F14_4 Sn10_4 2.177182 1_555
F14_4 Sn10_6 2.586834 1_545
F14_4 F6_6 2.715127 1_545
F14_4 F6_4 2.733304 1_555
F14_4 Sn0_4 2.752059 1_555
F14_4 Sn6_4 2.829008 1_555
F14_4 I0_4 3.736563 1_555
F14_4 I1_4 3.764920 1_555
F14_5 Sn10_5 2.177182 1_555
F14_5 Sn10_7 2.586834 1_545
F14_5 F6_7 2.715127 1_545
F14_5 F6_5 2.733304 1_555
F14_5 Sn0_5 2.752059 1_555
F14_5 Sn6_5 2.829008 1_555
F14_5 I0_5 3.736563 1_555
F14_5 I1_5 3.764920 1_555
F14_6 Sn10_6 2.177182 1_555
F14_6 Sn10_4 2.586834 1_555
F14_6 F6_4 2.715127 1_555
F14_6 F6_6 2.733304 1_555
F14_6 Sn0_6 2.752059 1_555
F14_6 Sn6_6 2.829008 1_555
F14_6 I0_6 3.736563 1_555
F14_6 I1_6 3.764920 1_555
F14_7 Sn10_7 2.177182 1_555
F14_7 Sn10_5 2.586834 1_555
F14_7 F6_5 2.715127 1_555
F14_7 F6_7 2.733304 1_555
F14_7 Sn0_7 2.752059 1_555
F14_7 Sn6_7 2.829008 1_555
F14_7 I0_7 3.736563 1_555
F14_7 I1_7 3.764920 1_555
F15_0 Sn11_0 2.177182 1_555
F15_0 Sn11_2 2.586834 1_555
F15_0 F7_2 2.715127 1_555
F15_0 F7_0 2.733304 1_555
F15_0 Sn1_0 2.752059 1_555
F15_0 Sn7_0 2.829008 1_555
F15_0 I1_0 3.736563 1_555
F15_0 I0_0 3.764920 1_555
F15_1 Sn11_1 2.177182 1_555
F15_1 Sn11_3 2.586834 1_555
F15_1 F7_3 2.715127 1_555
F15_1 F7_1 2.733304 1_555
F15_1 Sn1_1 2.752059 1_555
F15_1 Sn7_1 2.829008 1_555
F15_1 I1_1 3.736563 1_555
F15_1 I0_1 3.764920 1_555
F15_2 Sn11_2 2.177182 1_555
F15_2 Sn11_0 2.586834 1_565
F15_2 F7_0 2.715127 1_565
F15_2 F7_2 2.733304 1_555
F15_2 Sn1_2 2.752059 1_555
F15_2 Sn7_2 2.829008 1_555
F15_2 I1_2 3.736563 1_555
F15_2 I0_2 3.764920 1_555
F15_3 Sn11_3 2.177182 1_555
F15_3 Sn11_1 2.586834 1_565
F15_3 F7_1 2.715127 1_565
F15_3 F7_3 2.733304 1_555
F15_3 Sn1_3 2.752059 1_555
F15_3 Sn7_3 2.829008 1_555
F15_3 I1_3 3.736563 1_555
F15_3 I0_3 3.764920 1_555
F15_4 Sn11_4 2.177182 1_555
F15_4 Sn11_6 2.586834 1_555
F15_4 F7_6 2.715127 1_555
F15_4 F7_4 2.733304 1_555
F15_4 Sn1_4 2.752059 1_555
F15_4 Sn7_4 2.829008 1_555
F15_4 I1_4 3.736563 1_555
F15_4 I0_4 3.764920 1_555
F15_5 Sn11_5 2.177182 1_555
F15_5 Sn11_7 2.586834 1_555
F15_5 F7_7 2.715127 1_555
F15_5 F7_5 2.733304 1_555
F15_5 Sn1_5 2.752059 1_555
F15_5 Sn7_5 2.829008 1_555
F15_5 I1_5 3.736563 1_555
F15_5 I0_5 3.764920 1_555
F15_6 Sn11_6 2.177182 1_555
F15_6 Sn11_4 2.586834 1_565
F15_6 F7_4 2.715127 1_565
F15_6 F7_6 2.733304 1_555
F15_6 Sn1_6 2.752059 1_555
F15_6 Sn7_6 2.829008 1_555
F15_6 I1_6 3.736563 1_555
F15_6 I0_6 3.764920 1_555
F15_7 Sn11_7 2.177182 1_555
F15_7 Sn11_5 2.586834 1_565
F15_7 F7_5 2.715127 1_565
F15_7 F7_7 2.733304 1_555
F15_7 Sn1_7 2.752059 1_555
F15_7 Sn7_7 2.829008 1_555
F15_7 I1_7 3.736563 1_555
F15_7 I0_7 3.764920 1_555
F16_0 Sn0_0 2.172349 1_555
F16_0 Sn4_2 2.179915 1_545
F16_0 F4_0 2.749135 1_555
F16_0 F2_0 2.840753 1_555
F16_0 F3_3 2.843037 1_545
F16_0 I0_0 3.645455 1_555
F16_1 Sn0_1 2.172349 1_555
F16_1 Sn4_3 2.179915 1_545
F16_1 F4_1 2.749135 1_555
F16_1 F2_1 2.840753 1_555
F16_1 F3_2 2.843037 1_546
F16_1 I0_1 3.645455 1_555
F16_2 Sn0_2 2.172349 1_555
F16_2 Sn4_0 2.179915 1_555
F16_2 F4_2 2.749135 1_555
F16_2 F2_2 2.840753 1_555
F16_2 F3_1 2.843037 1_555
F16_2 I0_2 3.645455 1_555
F16_3 Sn0_3 2.172349 1_555
F16_3 Sn4_1 2.179915 1_555
F16_3 F4_3 2.749135 1_555
F16_3 F2_3 2.840753 1_555
F16_3 F3_0 2.843037 1_556
F16_3 I0_3 3.645455 1_555
F16_4 Sn0_4 2.172349 1_555
F16_4 Sn4_6 2.179915 1_545
F16_4 F4_4 2.749135 1_555
F16_4 F2_4 2.840753 1_555
F16_4 F3_7 2.843037 1_545
F16_4 I0_4 3.645455 1_555
F16_5 Sn0_5 2.172349 1_555
F16_5 Sn4_7 2.179915 1_545
F16_5 F4_5 2.749135 1_555
F16_5 F2_5 2.840753 1_555
F16_5 F3_6 2.843037 1_546
F16_5 I0_5 3.645455 1_555
F16_6 Sn0_6 2.172349 1_555
F16_6 Sn4_4 2.179915 1_555
F16_6 F4_6 2.749135 1_555
F16_6 F2_6 2.840753 1_555
F16_6 F3_5 2.843037 1_555
F16_6 I0_6 3.645455 1_555
F16_7 Sn0_7 2.172349 1_555
F16_7 Sn4_5 2.179915 1_555
F16_7 F4_7 2.749135 1_555
F16_7 F2_7 2.840753 1_555
F16_7 F3_4 2.843037 1_556
F16_7 I0_7 3.645455 1_555
F17_0 Sn1_0 2.172349 1_555
F17_0 Sn5_2 2.179915 1_555
F17_0 F5_0 2.749135 1_555
F17_0 F3_0 2.840753 1_555
F17_0 F2_3 2.843037 1_554
F17_0 I1_0 3.645455 1_555
F17_1 Sn1_1 2.172349 1_555
F17_1 Sn5_3 2.179915 1_555
F17_1 F5_1 2.749135 1_555
F17_1 F3_1 2.840753 1_555
F17_1 F2_2 2.843037 1_555
F17_1 I1_1 3.645455 1_555
F17_2 Sn1_2 2.172349 1_555
F17_2 Sn5_0 2.179915 1_565
F17_2 F5_2 2.749135 1_555
F17_2 F3_2 2.840753 1_555
F17_2 F2_1 2.843037 1_564
F17_2 I1_2 3.645455 1_555
F17_3 Sn1_3 2.172349 1_555
F17_3 Sn5_1 2.179915 1_565
F17_3 F5_3 2.749135 1_555
F17_3 F3_3 2.840753 1_555
F17_3 F2_0 2.843037 1_565
F17_3 I1_3 3.645455 1_555
F17_4 Sn1_4 2.172349 1_555
F17_4 Sn5_6 2.179915 1_555
F17_4 F5_4 2.749135 1_555
F17_4 F3_4 2.840753 1_555
F17_4 F2_7 2.843037 1_554
F17_4 I1_4 3.645455 1_555
F17_5 Sn1_5 2.172349 1_555
F17_5 Sn5_7 2.179915 1_555
F17_5 F5_5 2.749135 1_555
F17_5 F3_5 2.840753 1_555
F17_5 F2_6 2.843037 1_555
F17_5 I1_5 3.645455 1_555
F17_6 Sn1_6 2.172349 1_555
F17_6 Sn5_4 2.179915 1_565
F17_6 F5_6 2.749135 1_555
F17_6 F3_6 2.840753 1_555
F17_6 F2_5 2.843037 1_564
F17_6 I1_6 3.645455 1_555
F17_7 Sn1_7 2.172349 1_555
F17_7 Sn5_5 2.179915 1_565
F17_7 F5_7 2.749135 1_555
F17_7 F3_7 2.840753 1_555
F17_7 F2_4 2.843037 1_565
F17_7 I1_7 3.645455 1_555
F18_0 Sn2_4 2.172349 1_555
F18_0 Sn6_2 2.179915 1_555
F18_0 F6_0 2.749135 1_555
F18_0 F1_2 2.843037 1_555
F18_0 F8_4 2.850727 1_555
F18_0 F8_6 3.052411 1_555
F18_0 I2_0 3.645455 1_555
F18_1 Sn2_5 2.172349 1_555
F18_1 Sn6_3 2.179915 1_555
F18_1 F6_1 2.749135 1_555
F18_1 F1_3 2.843037 1_555
F18_1 F8_5 2.850727 1_555
F18_1 F8_7 3.052411 1_555
F18_1 I2_1 3.645455 1_555
F18_2 Sn2_6 2.172349 1_555
F18_2 Sn6_0 2.179915 1_565
F18_2 F6_2 2.749135 1_555
F18_2 F1_0 2.843037 1_565
F18_2 F8_6 2.850727 1_555
F18_2 F8_4 3.052411 1_565
F18_2 I2_2 3.645455 1_555
F18_3 Sn2_7 2.172349 1_555
F18_3 Sn6_1 2.179915 1_565
F18_3 F6_3 2.749135 1_555
F18_3 F1_1 2.843037 1_565
F18_3 F8_7 2.850727 1_555
F18_3 F8_5 3.052411 1_565
F18_3 I2_3 3.645455 1_555
F18_4 Sn2_0 2.172349 1_655
F18_4 Sn6_6 2.179915 1_555
F18_4 F6_4 2.749135 1_555
F18_4 F1_6 2.843037 1_555
F18_4 F8_0 2.850727 1_655
F18_4 F8_2 3.052411 1_655
F18_4 I2_4 3.645455 1_555
F18_5 Sn2_1 2.172349 1_655
F18_5 Sn6_7 2.179915 1_555
F18_5 F6_5 2.749135 1_555
F18_5 F1_7 2.843037 1_555
F18_5 F8_1 2.850727 1_655
F18_5 F8_3 3.052411 1_655
F18_5 I2_5 3.645455 1_555
F18_6 Sn2_2 2.172349 1_655
F18_6 Sn6_4 2.179915 1_565
F18_6 F6_6 2.749135 1_555
F18_6 F1_4 2.843037 1_565
F18_6 F8_2 2.850727 1_655
F18_6 F8_0 3.052411 1_665
F18_6 I2_6 3.645455 1_555
F18_7 Sn2_3 2.172349 1_655
F18_7 Sn6_5 2.179915 1_565
F18_7 F6_7 2.749135 1_555
F18_7 F1_5 2.843037 1_565
F18_7 F8_3 2.850727 1_655
F18_7 F8_1 3.052411 1_665
F18_7 I2_7 3.645455 1_555
F19_0 Sn3_4 2.172349 1_455
F19_0 Sn7_2 2.179915 1_545
F19_0 F7_0 2.749135 1_555
F19_0 F1_4 2.840753 1_455
F19_0 F9_4 2.850727 1_455
F19_0 F9_6 3.052411 1_445
F19_0 I3_0 3.645455 1_555
F19_1 Sn3_5 2.172349 1_455
F19_1 Sn7_3 2.179915 1_545
F19_1 F7_1 2.749135 1_555
F19_1 F1_5 2.840753 1_455
F19_1 F9_5 2.850727 1_455
F19_1 F9_7 3.052411 1_445
F19_1 I3_1 3.645455 1_555
F19_2 Sn3_6 2.172349 1_455
F19_2 Sn7_0 2.179915 1_555
F19_2 F7_2 2.749135 1_555
F19_2 F1_6 2.840753 1_455
F19_2 F9_6 2.850727 1_455
F19_2 F9_4 3.052411 1_455
F19_2 I3_2 3.645455 1_555
F19_3 Sn3_7 2.172349 1_455
F19_3 Sn7_1 2.179915 1_555
F19_3 F7_3 2.749135 1_555
F19_3 F1_7 2.840753 1_455
F19_3 F9_7 2.850727 1_455
F19_3 F9_5 3.052411 1_455
F19_3 I3_3 3.645455 1_555
F19_4 Sn3_0 2.172349 1_555
F19_4 Sn7_6 2.179915 1_545
F19_4 F7_4 2.749135 1_555
F19_4 F1_0 2.840753 1_555
F19_4 F9_0 2.850727 1_555
F19_4 F9_2 3.052411 1_545
F19_4 I3_4 3.645455 1_555
F19_5 Sn3_1 2.172349 1_555
F19_5 Sn7_7 2.179915 1_545
F19_5 F7_5 2.749135 1_555
F19_5 F1_1 2.840753 1_555
F19_5 F9_1 2.850727 1_555
F19_5 F9_3 3.052411 1_545
F19_5 I3_5 3.645455 1_555
F19_6 Sn3_2 2.172349 1_555
F19_6 Sn7_4 2.179915 1_555
F19_6 F7_6 2.749135 1_555
F19_6 F1_2 2.840753 1_555
F19_6 F9_2 2.850727 1_555
F19_6 F9_0 3.052411 1_555
F19_6 I3_6 3.645455 1_555
F19_7 Sn3_3 2.172349 1_555
F19_7 Sn7_5 2.179915 1_555
F19_7 F7_7 2.749135 1_555
F19_7 F1_3 2.840753 1_555
F19_7 F9_3 2.850727 1_555
F19_7 F9_1 3.052411 1_555
F19_7 I3_7 3.645455 1_555
