# generated using pymatgen
data_Cs3Tb7Te12
_symmetry_space_group_name_H-M   'P 1'
_cell_length_a   8.92548916
_cell_length_b   27.30099474
_cell_length_c   56.98441118
_cell_angle_alpha   90.00000000
_cell_angle_beta   90.00000000
_cell_angle_gamma   90.00000000
_symmetry_Int_Tables_number   1
_chemical_formula_structural   Cs3Tb7Te12
_chemical_formula_sum   'Cs48 Tb112 Te192'
_cell_volume   13885.66115717
_cell_formula_units_Z   16
loop_
 _symmetry_equiv_pos_site_id
 _symmetry_equiv_pos_as_xyz
  1  'x, y, z'
loop_
 _atom_site_type_symbol
 _atom_site_label
 _atom_site_symmetry_multiplicity
 _atom_site_fract_x
 _atom_site_fract_y
 _atom_site_fract_z
 _atom_site_occupancy
  Cs  Cs0_0  1  0.25000000  0.01175479  0.18720730  1
  Cs  Cs0_1  1  0.25000000  0.01175479  0.68720730  1
  Cs  Cs0_2  1  0.25000000  0.51175478  0.18720730  1
  Cs  Cs0_3  1  0.25000000  0.51175478  0.68720730  1
  Cs  Cs0_4  1  0.75000000  0.01175479  0.18720730  1
  Cs  Cs0_5  1  0.75000000  0.01175479  0.68720730  1
  Cs  Cs0_6  1  0.75000000  0.51175478  0.18720730  1
  Cs  Cs0_7  1  0.75000000  0.51175478  0.68720730  1
  Cs  Cs1_0  1  0.25000000  0.23544561  0.31580328  1
  Cs  Cs1_1  1  0.25000000  0.23544561  0.81580328  1
  Cs  Cs1_2  1  0.25000000  0.73544561  0.31580328  1
  Cs  Cs1_3  1  0.25000000  0.73544561  0.81580328  1
  Cs  Cs1_4  1  0.75000000  0.23544561  0.31580328  1
  Cs  Cs1_5  1  0.75000000  0.23544561  0.81580328  1
  Cs  Cs1_6  1  0.75000000  0.73544561  0.31580328  1
  Cs  Cs1_7  1  0.75000000  0.73544561  0.81580328  1
  Cs  Cs2_0  1  0.00000000  0.26455439  0.06580328  1
  Cs  Cs2_1  1  0.00000000  0.26455439  0.56580328  1
  Cs  Cs2_2  1  0.00000000  0.76455438  0.06580328  1
  Cs  Cs2_3  1  0.00000000  0.76455438  0.56580328  1
  Cs  Cs2_4  1  0.50000000  0.26455439  0.06580328  1
  Cs  Cs2_5  1  0.50000000  0.26455439  0.56580328  1
  Cs  Cs2_6  1  0.50000000  0.76455438  0.06580328  1
  Cs  Cs2_7  1  0.50000000  0.76455438  0.56580328  1
  Cs  Cs3_0  1  0.00000000  0.48824521  0.43720730  1
  Cs  Cs3_1  1  0.00000000  0.48824521  0.93720730  1
  Cs  Cs3_2  1  0.00000000  0.98824522  0.43720730  1
  Cs  Cs3_3  1  0.00000000  0.98824522  0.93720730  1
  Cs  Cs3_4  1  0.50000000  0.48824521  0.43720730  1
  Cs  Cs3_5  1  0.50000000  0.48824521  0.93720730  1
  Cs  Cs3_6  1  0.50000000  0.98824522  0.43720730  1
  Cs  Cs3_7  1  0.50000000  0.98824522  0.93720730  1
  Cs  Cs4_0  1  0.25000000  0.15077610  0.01205803  1
  Cs  Cs4_1  1  0.25000000  0.15077610  0.51205803  1
  Cs  Cs4_2  1  0.25000000  0.65077610  0.01205803  1
  Cs  Cs4_3  1  0.25000000  0.65077610  0.51205803  1
  Cs  Cs4_4  1  0.75000000  0.15077610  0.01205803  1
  Cs  Cs4_5  1  0.75000000  0.15077610  0.51205803  1
  Cs  Cs4_6  1  0.75000000  0.65077610  0.01205803  1
  Cs  Cs4_7  1  0.75000000  0.65077610  0.51205803  1
  Cs  Cs5_0  1  0.00000000  0.34922390  0.26205803  1
  Cs  Cs5_1  1  0.00000000  0.34922390  0.76205803  1
  Cs  Cs5_2  1  0.00000000  0.84922390  0.26205803  1
  Cs  Cs5_3  1  0.00000000  0.84922390  0.76205803  1
  Cs  Cs5_4  1  0.50000000  0.34922390  0.26205803  1
  Cs  Cs5_5  1  0.50000000  0.34922390  0.76205803  1
  Cs  Cs5_6  1  0.50000000  0.84922390  0.26205803  1
  Cs  Cs5_7  1  0.50000000  0.84922390  0.76205803  1
  Tb  Tb0_0  1  0.25000000  0.33253148  0.15799975  1
  Tb  Tb0_1  1  0.25000000  0.33253148  0.65799976  1
  Tb  Tb0_2  1  0.25000000  0.83253148  0.15799975  1
  Tb  Tb0_3  1  0.25000000  0.83253148  0.65799976  1
  Tb  Tb0_4  1  0.75000000  0.33253148  0.15799975  1
  Tb  Tb0_5  1  0.75000000  0.33253148  0.65799976  1
  Tb  Tb0_6  1  0.75000000  0.83253148  0.15799975  1
  Tb  Tb0_7  1  0.75000000  0.83253148  0.65799976  1
  Tb  Tb1_0  1  0.25000000  0.41916389  0.34216334  1
  Tb  Tb1_1  1  0.25000000  0.41916389  0.84216334  1
  Tb  Tb1_2  1  0.25000000  0.91916389  0.34216334  1
  Tb  Tb1_3  1  0.25000000  0.91916389  0.84216334  1
  Tb  Tb1_4  1  0.75000000  0.41916389  0.34216334  1
  Tb  Tb1_5  1  0.75000000  0.41916389  0.84216334  1
  Tb  Tb1_6  1  0.75000000  0.91916389  0.34216334  1
  Tb  Tb1_7  1  0.75000000  0.91916389  0.84216334  1
  Tb  Tb2_0  1  0.00000000  0.08083611  0.09216333  1
  Tb  Tb2_1  1  0.00000000  0.08083611  0.59216334  1
  Tb  Tb2_2  1  0.00000000  0.58083611  0.09216333  1
  Tb  Tb2_3  1  0.00000000  0.58083611  0.59216334  1
  Tb  Tb2_4  1  0.50000000  0.08083611  0.09216333  1
  Tb  Tb2_5  1  0.50000000  0.08083611  0.59216334  1
  Tb  Tb2_6  1  0.50000000  0.58083611  0.09216333  1
  Tb  Tb2_7  1  0.50000000  0.58083611  0.59216334  1
  Tb  Tb3_0  1  0.00000000  0.16746852  0.40799976  1
  Tb  Tb3_1  1  0.00000000  0.16746852  0.90799976  1
  Tb  Tb3_2  1  0.00000000  0.66746852  0.40799976  1
  Tb  Tb3_3  1  0.00000000  0.66746852  0.90799976  1
  Tb  Tb3_4  1  0.50000000  0.16746852  0.40799976  1
  Tb  Tb3_5  1  0.50000000  0.16746852  0.90799976  1
  Tb  Tb3_6  1  0.50000000  0.66746852  0.40799976  1
  Tb  Tb3_7  1  0.50000000  0.66746852  0.90799976  1
  Tb  Tb4_0  1  0.25000000  0.12707516  0.25029209  1
  Tb  Tb4_1  1  0.25000000  0.12707516  0.75029210  1
  Tb  Tb4_2  1  0.25000000  0.62707516  0.25029209  1
  Tb  Tb4_3  1  0.25000000  0.62707516  0.75029210  1
  Tb  Tb4_4  1  0.75000000  0.12707516  0.25029209  1
  Tb  Tb4_5  1  0.75000000  0.12707516  0.75029210  1
  Tb  Tb4_6  1  0.75000000  0.62707516  0.25029209  1
  Tb  Tb4_7  1  0.75000000  0.62707516  0.75029210  1
  Tb  Tb5_0  1  0.00000000  0.37292484  0.00029210  1
  Tb  Tb5_1  1  0.00000000  0.37292484  0.50029210  1
  Tb  Tb5_2  1  0.00000000  0.87292484  0.00029210  1
  Tb  Tb5_3  1  0.00000000  0.87292484  0.50029210  1
  Tb  Tb5_4  1  0.50000000  0.37292484  0.00029210  1
  Tb  Tb5_5  1  0.50000000  0.37292484  0.50029210  1
  Tb  Tb5_6  1  0.50000000  0.87292484  0.00029210  1
  Tb  Tb5_7  1  0.50000000  0.87292484  0.50029210  1
  Tb  Tb6_0  1  0.25000000  0.26726056  0.45659945  1
  Tb  Tb6_1  1  0.25000000  0.26726056  0.95659945  1
  Tb  Tb6_2  1  0.25000000  0.76726056  0.45659945  1
  Tb  Tb6_3  1  0.25000000  0.76726056  0.95659945  1
  Tb  Tb6_4  1  0.75000000  0.26726056  0.45659945  1
  Tb  Tb6_5  1  0.75000000  0.26726056  0.95659945  1
  Tb  Tb6_6  1  0.75000000  0.76726056  0.45659945  1
  Tb  Tb6_7  1  0.75000000  0.76726056  0.95659945  1
  Tb  Tb7_0  1  0.25000000  0.48010713  0.04264730  1
  Tb  Tb7_1  1  0.25000000  0.48010713  0.54264730  1
  Tb  Tb7_2  1  0.25000000  0.98010712  0.04264730  1
  Tb  Tb7_3  1  0.25000000  0.98010712  0.54264730  1
  Tb  Tb7_4  1  0.75000000  0.48010713  0.04264730  1
  Tb  Tb7_5  1  0.75000000  0.48010713  0.54264730  1
  Tb  Tb7_6  1  0.75000000  0.98010712  0.04264730  1
  Tb  Tb7_7  1  0.75000000  0.98010712  0.54264730  1
  Tb  Tb8_0  1  0.00000000  0.01989287  0.29264730  1
  Tb  Tb8_1  1  0.00000000  0.01989287  0.79264730  1
  Tb  Tb8_2  1  0.00000000  0.51989287  0.29264730  1
  Tb  Tb8_3  1  0.00000000  0.51989287  0.79264730  1
  Tb  Tb8_4  1  0.50000000  0.01989287  0.29264730  1
  Tb  Tb8_5  1  0.50000000  0.01989287  0.79264730  1
  Tb  Tb8_6  1  0.50000000  0.51989287  0.29264730  1
  Tb  Tb8_7  1  0.50000000  0.51989287  0.79264730  1
  Tb  Tb9_0  1  0.00000000  0.23273944  0.20659946  1
  Tb  Tb9_1  1  0.00000000  0.23273944  0.70659945  1
  Tb  Tb9_2  1  0.00000000  0.73273944  0.20659946  1
  Tb  Tb9_3  1  0.00000000  0.73273944  0.70659945  1
  Tb  Tb9_4  1  0.50000000  0.23273944  0.20659946  1
  Tb  Tb9_5  1  0.50000000  0.23273944  0.70659945  1
  Tb  Tb9_6  1  0.50000000  0.73273944  0.20659946  1
  Tb  Tb9_7  1  0.50000000  0.73273944  0.70659945  1
  Tb  Tb10_0  1  0.25000000  0.16558215  0.14432430  1
  Tb  Tb10_1  1  0.25000000  0.16558215  0.64432430  1
  Tb  Tb10_2  1  0.25000000  0.66558215  0.14432430  1
  Tb  Tb10_3  1  0.25000000  0.66558215  0.64432430  1
  Tb  Tb10_4  1  0.75000000  0.16558215  0.14432430  1
  Tb  Tb10_5  1  0.75000000  0.16558215  0.64432430  1
  Tb  Tb10_6  1  0.75000000  0.66558215  0.14432430  1
  Tb  Tb10_7  1  0.75000000  0.66558215  0.64432430  1
  Tb  Tb11_0  1  0.25000000  0.08399822  0.35587526  1
  Tb  Tb11_1  1  0.25000000  0.08399822  0.85587526  1
  Tb  Tb11_2  1  0.25000000  0.58399822  0.35587526  1
  Tb  Tb11_3  1  0.25000000  0.58399822  0.85587526  1
  Tb  Tb11_4  1  0.75000000  0.08399822  0.35587526  1
  Tb  Tb11_5  1  0.75000000  0.08399822  0.85587526  1
  Tb  Tb11_6  1  0.75000000  0.58399822  0.35587526  1
  Tb  Tb11_7  1  0.75000000  0.58399822  0.85587526  1
  Tb  Tb12_0  1  0.00000000  0.41600179  0.10587526  1
  Tb  Tb12_1  1  0.00000000  0.41600179  0.60587526  1
  Tb  Tb12_2  1  0.00000000  0.91600178  0.10587526  1
  Tb  Tb12_3  1  0.00000000  0.91600178  0.60587526  1
  Tb  Tb12_4  1  0.50000000  0.41600179  0.10587526  1
  Tb  Tb12_5  1  0.50000000  0.41600179  0.60587526  1
  Tb  Tb12_6  1  0.50000000  0.91600178  0.10587526  1
  Tb  Tb12_7  1  0.50000000  0.91600178  0.60587526  1
  Tb  Tb13_0  1  0.00000000  0.33441785  0.39432430  1
  Tb  Tb13_1  1  0.00000000  0.33441785  0.89432430  1
  Tb  Tb13_2  1  0.00000000  0.83441785  0.39432430  1
  Tb  Tb13_3  1  0.00000000  0.83441785  0.89432430  1
  Tb  Tb13_4  1  0.50000000  0.33441785  0.39432430  1
  Tb  Tb13_5  1  0.50000000  0.33441785  0.89432430  1
  Tb  Tb13_6  1  0.50000000  0.83441785  0.39432430  1
  Tb  Tb13_7  1  0.50000000  0.83441785  0.89432430  1
  Te  Te0_0  1  0.25000000  0.31092855  0.21054114  1
  Te  Te0_1  1  0.25000000  0.31092855  0.71054114  1
  Te  Te0_2  1  0.25000000  0.81092855  0.21054114  1
  Te  Te0_3  1  0.25000000  0.81092855  0.71054114  1
  Te  Te0_4  1  0.75000000  0.31092855  0.21054114  1
  Te  Te0_5  1  0.75000000  0.31092855  0.71054114  1
  Te  Te0_6  1  0.75000000  0.81092855  0.21054114  1
  Te  Te0_7  1  0.75000000  0.81092855  0.71054114  1
  Te  Te1_0  1  0.25000000  0.44251628  0.28957372  1
  Te  Te1_1  1  0.25000000  0.44251628  0.78957372  1
  Te  Te1_2  1  0.25000000  0.94251628  0.28957372  1
  Te  Te1_3  1  0.25000000  0.94251628  0.78957372  1
  Te  Te1_4  1  0.75000000  0.44251628  0.28957372  1
  Te  Te1_5  1  0.75000000  0.44251628  0.78957372  1
  Te  Te1_6  1  0.75000000  0.94251628  0.28957372  1
  Te  Te1_7  1  0.75000000  0.94251628  0.78957372  1
  Te  Te2_0  1  0.00000000  0.05748372  0.03957372  1
  Te  Te2_1  1  0.00000000  0.05748372  0.53957372  1
  Te  Te2_2  1  0.00000000  0.55748372  0.03957372  1
  Te  Te2_3  1  0.00000000  0.55748372  0.53957372  1
  Te  Te2_4  1  0.50000000  0.05748372  0.03957372  1
  Te  Te2_5  1  0.50000000  0.05748372  0.53957372  1
  Te  Te2_6  1  0.50000000  0.55748372  0.03957372  1
  Te  Te2_7  1  0.50000000  0.55748372  0.53957372  1
  Te  Te3_0  1  0.00000000  0.18907145  0.46054113  1
  Te  Te3_1  1  0.00000000  0.18907145  0.96054113  1
  Te  Te3_2  1  0.00000000  0.68907145  0.46054113  1
  Te  Te3_3  1  0.00000000  0.68907145  0.96054113  1
  Te  Te3_4  1  0.50000000  0.18907145  0.46054113  1
  Te  Te3_5  1  0.50000000  0.18907145  0.96054113  1
  Te  Te3_6  1  0.50000000  0.68907145  0.46054113  1
  Te  Te3_7  1  0.50000000  0.68907145  0.96054113  1
  Te  Te4_0  1  0.25000000  0.25189293  0.40089674  1
  Te  Te4_1  1  0.25000000  0.25189293  0.90089674  1
  Te  Te4_2  1  0.25000000  0.75189293  0.40089674  1
  Te  Te4_3  1  0.25000000  0.75189293  0.90089674  1
  Te  Te4_4  1  0.75000000  0.25189293  0.40089674  1
  Te  Te4_5  1  0.75000000  0.25189293  0.90089674  1
  Te  Te4_6  1  0.75000000  0.75189293  0.40089674  1
  Te  Te4_7  1  0.75000000  0.75189293  0.90089674  1
  Te  Te5_0  1  0.25000000  0.49783092  0.09878447  1
  Te  Te5_1  1  0.25000000  0.49783092  0.59878447  1
  Te  Te5_2  1  0.25000000  0.99783092  0.09878447  1
  Te  Te5_3  1  0.25000000  0.99783092  0.59878447  1
  Te  Te5_4  1  0.75000000  0.49783092  0.09878447  1
  Te  Te5_5  1  0.75000000  0.49783092  0.59878447  1
  Te  Te5_6  1  0.75000000  0.99783092  0.09878447  1
  Te  Te5_7  1  0.75000000  0.99783092  0.59878447  1
  Te  Te6_0  1  0.00000000  0.00216907  0.34878446  1
  Te  Te6_1  1  0.00000000  0.00216907  0.84878447  1
  Te  Te6_2  1  0.00000000  0.50216907  0.34878446  1
  Te  Te6_3  1  0.00000000  0.50216907  0.84878447  1
  Te  Te6_4  1  0.50000000  0.00216907  0.34878446  1
  Te  Te6_5  1  0.50000000  0.00216907  0.84878447  1
  Te  Te6_6  1  0.50000000  0.50216907  0.34878446  1
  Te  Te6_7  1  0.50000000  0.50216907  0.84878447  1
  Te  Te7_0  1  0.00000000  0.24810707  0.15089674  1
  Te  Te7_1  1  0.00000000  0.24810707  0.65089674  1
  Te  Te7_2  1  0.00000000  0.74810706  0.15089674  1
  Te  Te7_3  1  0.00000000  0.74810706  0.65089674  1
  Te  Te7_4  1  0.50000000  0.24810707  0.15089674  1
  Te  Te7_5  1  0.50000000  0.24810707  0.65089674  1
  Te  Te7_6  1  0.50000000  0.74810706  0.15089674  1
  Te  Te7_7  1  0.50000000  0.74810706  0.65089674  1
  Te  Te8_0  1  0.25000000  0.15811624  0.08962420  1
  Te  Te8_1  1  0.25000000  0.15811624  0.58962421  1
  Te  Te8_2  1  0.25000000  0.65811624  0.08962420  1
  Te  Te8_3  1  0.25000000  0.65811624  0.58962421  1
  Te  Te8_4  1  0.75000000  0.15811624  0.08962420  1
  Te  Te8_5  1  0.75000000  0.15811624  0.58962421  1
  Te  Te8_6  1  0.75000000  0.65811624  0.08962420  1
  Te  Te8_7  1  0.75000000  0.65811624  0.58962421  1
  Te  Te9_0  1  0.25000000  0.09108816  0.40976134  1
  Te  Te9_1  1  0.25000000  0.09108816  0.90976134  1
  Te  Te9_2  1  0.25000000  0.59108816  0.40976134  1
  Te  Te9_3  1  0.25000000  0.59108816  0.90976134  1
  Te  Te9_4  1  0.75000000  0.09108816  0.40976134  1
  Te  Te9_5  1  0.75000000  0.09108816  0.90976134  1
  Te  Te9_6  1  0.75000000  0.59108816  0.40976134  1
  Te  Te9_7  1  0.75000000  0.59108816  0.90976134  1
  Te  Te10_0  1  0.00000000  0.40891184  0.15976134  1
  Te  Te10_1  1  0.00000000  0.40891184  0.65976134  1
  Te  Te10_2  1  0.00000000  0.90891184  0.15976134  1
  Te  Te10_3  1  0.00000000  0.90891184  0.65976134  1
  Te  Te10_4  1  0.50000000  0.40891184  0.15976134  1
  Te  Te10_5  1  0.50000000  0.40891184  0.65976134  1
  Te  Te10_6  1  0.50000000  0.90891184  0.15976134  1
  Te  Te10_7  1  0.50000000  0.90891184  0.65976134  1
  Te  Te11_0  1  0.00000000  0.34188376  0.33962421  1
  Te  Te11_1  1  0.00000000  0.34188376  0.83962421  1
  Te  Te11_2  1  0.00000000  0.84188376  0.33962421  1
  Te  Te11_3  1  0.00000000  0.84188376  0.83962421  1
  Te  Te11_4  1  0.50000000  0.34188376  0.33962421  1
  Te  Te11_5  1  0.50000000  0.34188376  0.83962421  1
  Te  Te11_6  1  0.50000000  0.84188376  0.33962421  1
  Te  Te11_7  1  0.50000000  0.84188376  0.83962421  1
  Te  Te12_0  1  0.25000000  0.15584294  0.19823167  1
  Te  Te12_1  1  0.25000000  0.15584294  0.69823167  1
  Te  Te12_2  1  0.25000000  0.65584294  0.19823167  1
  Te  Te12_3  1  0.25000000  0.65584294  0.69823167  1
  Te  Te12_4  1  0.75000000  0.15584294  0.19823167  1
  Te  Te12_5  1  0.75000000  0.15584294  0.69823167  1
  Te  Te12_6  1  0.75000000  0.65584294  0.19823167  1
  Te  Te12_7  1  0.75000000  0.65584294  0.69823167  1
  Te  Te13_0  1  0.25000000  0.09605312  0.30202756  1
  Te  Te13_1  1  0.25000000  0.09605312  0.80202756  1
  Te  Te13_2  1  0.25000000  0.59605312  0.30202756  1
  Te  Te13_3  1  0.25000000  0.59605312  0.80202756  1
  Te  Te13_4  1  0.75000000  0.09605312  0.30202756  1
  Te  Te13_5  1  0.75000000  0.09605312  0.80202756  1
  Te  Te13_6  1  0.75000000  0.59605312  0.30202756  1
  Te  Te13_7  1  0.75000000  0.59605312  0.80202756  1
  Te  Te14_0  1  0.00000000  0.40394689  0.05202756  1
  Te  Te14_1  1  0.00000000  0.40394689  0.55202756  1
  Te  Te14_2  1  0.00000000  0.90394689  0.05202756  1
  Te  Te14_3  1  0.00000000  0.90394689  0.55202756  1
  Te  Te14_4  1  0.50000000  0.40394689  0.05202756  1
  Te  Te14_5  1  0.50000000  0.40394689  0.55202756  1
  Te  Te14_6  1  0.50000000  0.90394689  0.05202756  1
  Te  Te14_7  1  0.50000000  0.90394689  0.55202756  1
  Te  Te15_0  1  0.00000000  0.34415706  0.44823167  1
  Te  Te15_1  1  0.00000000  0.34415706  0.94823167  1
  Te  Te15_2  1  0.00000000  0.84415706  0.44823167  1
  Te  Te15_3  1  0.00000000  0.84415706  0.94823167  1
  Te  Te15_4  1  0.50000000  0.34415706  0.44823167  1
  Te  Te15_5  1  0.50000000  0.34415706  0.94823167  1
  Te  Te15_6  1  0.50000000  0.84415706  0.44823167  1
  Te  Te15_7  1  0.50000000  0.84415706  0.94823167  1
  Te  Te16_0  1  0.25000000  0.29434627  0.00896437  1
  Te  Te16_1  1  0.25000000  0.29434627  0.50896437  1
  Te  Te16_2  1  0.25000000  0.79434627  0.00896437  1
  Te  Te16_3  1  0.25000000  0.79434627  0.50896437  1
  Te  Te16_4  1  0.75000000  0.29434627  0.00896437  1
  Te  Te16_5  1  0.75000000  0.29434627  0.50896437  1
  Te  Te16_6  1  0.75000000  0.79434627  0.00896437  1
  Te  Te16_7  1  0.75000000  0.79434627  0.50896437  1
  Te  Te17_0  1  0.25000000  0.44966524  0.49145655  1
  Te  Te17_1  1  0.25000000  0.44966524  0.99145655  1
  Te  Te17_2  1  0.25000000  0.94966524  0.49145655  1
  Te  Te17_3  1  0.25000000  0.94966524  0.99145655  1
  Te  Te17_4  1  0.75000000  0.44966524  0.49145655  1
  Te  Te17_5  1  0.75000000  0.44966524  0.99145655  1
  Te  Te17_6  1  0.75000000  0.94966524  0.49145655  1
  Te  Te17_7  1  0.75000000  0.94966524  0.99145655  1
  Te  Te18_0  1  0.00000000  0.05033475  0.24145654  1
  Te  Te18_1  1  0.00000000  0.05033475  0.74145655  1
  Te  Te18_2  1  0.00000000  0.55033475  0.24145654  1
  Te  Te18_3  1  0.00000000  0.55033475  0.74145655  1
  Te  Te18_4  1  0.50000000  0.05033475  0.24145654  1
  Te  Te18_5  1  0.50000000  0.05033475  0.74145655  1
  Te  Te18_6  1  0.50000000  0.55033475  0.24145654  1
  Te  Te18_7  1  0.50000000  0.55033475  0.74145655  1
  Te  Te19_0  1  0.00000000  0.20565372  0.25896437  1
  Te  Te19_1  1  0.00000000  0.20565372  0.75896437  1
  Te  Te19_2  1  0.00000000  0.70565372  0.25896437  1
  Te  Te19_3  1  0.00000000  0.70565372  0.75896437  1
  Te  Te19_4  1  0.50000000  0.20565372  0.25896437  1
  Te  Te19_5  1  0.50000000  0.20565372  0.75896437  1
  Te  Te19_6  1  0.50000000  0.70565372  0.25896437  1
  Te  Te19_7  1  0.50000000  0.70565372  0.75896437  1
  Te  Te20_0  1  0.25000000  0.34056587  0.10491520  1
  Te  Te20_1  1  0.25000000  0.34056587  0.60491520  1
  Te  Te20_2  1  0.25000000  0.84056587  0.10491520  1
  Te  Te20_3  1  0.25000000  0.84056587  0.60491520  1
  Te  Te20_4  1  0.75000000  0.34056587  0.10491520  1
  Te  Te20_5  1  0.75000000  0.34056587  0.60491520  1
  Te  Te20_6  1  0.75000000  0.84056587  0.10491520  1
  Te  Te20_7  1  0.75000000  0.84056587  0.60491520  1
  Te  Te21_0  1  0.25000000  0.40987426  0.39535295  1
  Te  Te21_1  1  0.25000000  0.40987426  0.89535294  1
  Te  Te21_2  1  0.25000000  0.90987426  0.39535295  1
  Te  Te21_3  1  0.25000000  0.90987426  0.89535294  1
  Te  Te21_4  1  0.75000000  0.40987426  0.39535295  1
  Te  Te21_5  1  0.75000000  0.40987426  0.89535294  1
  Te  Te21_6  1  0.75000000  0.90987426  0.39535295  1
  Te  Te21_7  1  0.75000000  0.90987426  0.89535294  1
  Te  Te22_0  1  0.00000000  0.09012574  0.14535295  1
  Te  Te22_1  1  0.00000000  0.09012574  0.64535295  1
  Te  Te22_2  1  0.00000000  0.59012575  0.14535295  1
  Te  Te22_3  1  0.00000000  0.59012575  0.64535295  1
  Te  Te22_4  1  0.50000000  0.09012574  0.14535295  1
  Te  Te22_5  1  0.50000000  0.09012574  0.64535295  1
  Te  Te22_6  1  0.50000000  0.59012575  0.14535295  1
  Te  Te22_7  1  0.50000000  0.59012575  0.64535295  1
  Te  Te23_0  1  0.00000000  0.15943413  0.35491520  1
  Te  Te23_1  1  0.00000000  0.15943413  0.85491520  1
  Te  Te23_2  1  0.00000000  0.65943412  0.35491520  1
  Te  Te23_3  1  0.00000000  0.65943412  0.85491520  1
  Te  Te23_4  1  0.50000000  0.15943413  0.35491520  1
  Te  Te23_5  1  0.50000000  0.15943413  0.85491520  1
  Te  Te23_6  1  0.50000000  0.65943412  0.35491520  1
  Te  Te23_7  1  0.50000000  0.65943412  0.85491520  1
loop_
_geom_bond_atom_site_label_1
_geom_bond_atom_site_label_2
_geom_bond_distance
_geom_bond_site_symmetry_2
Cs0_0 Te22_0 3.904533 1_555
Cs0_0 Te22_4 3.904533 1_555
Cs0_0 Te10_6 3.912589 1_545
Cs0_0 Te10_2 3.912589 1_545
Cs0_0 Te18_0 3.955366 1_555
Cs0_0 Te18_4 3.955366 1_555
Cs0_0 Te12_0 3.983597 1_555
Cs0_0 Cs0_4 4.462745 1_555
Cs0_0 Cs0_4 4.462745 1_455
Cs0_1 Te22_1 3.904533 1_555
Cs0_1 Te22_5 3.904533 1_555
Cs0_1 Te10_7 3.912589 1_545
Cs0_1 Te10_3 3.912589 1_545
Cs0_1 Te18_1 3.955366 1_555
Cs0_1 Te18_5 3.955366 1_555
Cs0_1 Te12_1 3.983597 1_555
Cs0_1 Cs0_5 4.462745 1_555
Cs0_1 Cs0_5 4.462745 1_455
Cs0_2 Te22_2 3.904533 1_555
Cs0_2 Te22_6 3.904533 1_555
Cs0_2 Te10_4 3.912589 1_555
Cs0_2 Te10_0 3.912589 1_555
Cs0_2 Te18_2 3.955366 1_555
Cs0_2 Te18_6 3.955366 1_555
Cs0_2 Te12_2 3.983597 1_555
Cs0_2 Cs0_6 4.462745 1_555
Cs0_2 Cs0_6 4.462745 1_455
Cs0_3 Te22_3 3.904533 1_555
Cs0_3 Te22_7 3.904533 1_555
Cs0_3 Te10_1 3.912589 1_555
Cs0_3 Te10_5 3.912589 1_555
Cs0_3 Te18_3 3.955366 1_555
Cs0_3 Te18_7 3.955366 1_555
Cs0_3 Te12_3 3.983597 1_555
Cs0_3 Cs0_7 4.462745 1_555
Cs0_3 Cs0_7 4.462745 1_455
Cs0_4 Te22_4 3.904533 1_555
Cs0_4 Te22_0 3.904533 1_655
Cs0_4 Te10_6 3.912589 1_545
Cs0_4 Te10_2 3.912589 1_645
Cs0_4 Te18_4 3.955366 1_555
Cs0_4 Te18_0 3.955366 1_655
Cs0_4 Te12_4 3.983597 1_555
Cs0_5 Te22_5 3.904533 1_555
Cs0_5 Te22_1 3.904533 1_655
Cs0_5 Te10_7 3.912589 1_545
Cs0_5 Te10_3 3.912589 1_645
Cs0_5 Te18_5 3.955366 1_555
Cs0_5 Te18_1 3.955366 1_655
Cs0_5 Te12_5 3.983597 1_555
Cs0_6 Te22_6 3.904533 1_555
Cs0_6 Te22_2 3.904533 1_655
Cs0_6 Te10_0 3.912589 1_655
Cs0_6 Te10_4 3.912589 1_555
Cs0_6 Te18_2 3.955366 1_655
Cs0_6 Te18_6 3.955366 1_555
Cs0_6 Te12_6 3.983597 1_555
Cs0_7 Te22_3 3.904533 1_655
Cs0_7 Te22_7 3.904533 1_555
Cs0_7 Te10_1 3.912589 1_655
Cs0_7 Te10_5 3.912589 1_555
Cs0_7 Te18_3 3.955366 1_655
Cs0_7 Te18_7 3.955366 1_555
Cs0_7 Te12_7 3.983597 1_555
Cs1_0 Te23_4 3.775294 1_555
Cs1_0 Te23_0 3.775294 1_555
Cs1_0 Te13_0 3.885675 1_555
Cs1_0 Te11_0 3.907132 1_555
Cs1_0 Te11_4 3.907132 1_555
Cs1_0 Te19_4 4.016371 1_555
Cs1_0 Te19_0 4.016371 1_555
Cs1_0 Cs1_4 4.462745 1_555
Cs1_0 Cs1_4 4.462745 1_455
Cs1_0 Cs5_0 4.899760 1_555
Cs1_0 Cs5_4 4.899760 1_555
Cs1_1 Te23_1 3.775294 1_555
Cs1_1 Te23_5 3.775294 1_555
Cs1_1 Te13_1 3.885675 1_555
Cs1_1 Te11_1 3.907132 1_555
Cs1_1 Te11_5 3.907132 1_555
Cs1_1 Te19_1 4.016371 1_555
Cs1_1 Te19_5 4.016371 1_555
Cs1_1 Cs1_5 4.462745 1_555
Cs1_1 Cs1_5 4.462745 1_455
Cs1_1 Cs5_1 4.899760 1_555
Cs1_1 Cs5_5 4.899760 1_555
Cs1_2 Te23_2 3.775294 1_555
Cs1_2 Te23_6 3.775294 1_555
Cs1_2 Te13_2 3.885675 1_555
Cs1_2 Te11_2 3.907132 1_555
Cs1_2 Te11_6 3.907132 1_555
Cs1_2 Te19_2 4.016371 1_555
Cs1_2 Te19_6 4.016371 1_555
Cs1_2 Cs1_6 4.462745 1_455
Cs1_2 Cs1_6 4.462745 1_555
Cs1_2 Cs5_2 4.899760 1_555
Cs1_2 Cs5_6 4.899760 1_555
Cs1_3 Te23_7 3.775294 1_555
Cs1_3 Te23_3 3.775294 1_555
Cs1_3 Te13_3 3.885675 1_555
Cs1_3 Te11_3 3.907132 1_555
Cs1_3 Te11_7 3.907132 1_555
Cs1_3 Te19_7 4.016371 1_555
Cs1_3 Te19_3 4.016371 1_555
Cs1_3 Cs1_7 4.462745 1_455
Cs1_3 Cs1_7 4.462745 1_555
Cs1_3 Cs5_7 4.899760 1_555
Cs1_3 Cs5_3 4.899760 1_555
Cs1_4 Te23_4 3.775294 1_555
Cs1_4 Te23_0 3.775294 1_655
Cs1_4 Te13_4 3.885675 1_555
Cs1_4 Te11_4 3.907132 1_555
Cs1_4 Te11_0 3.907132 1_655
Cs1_4 Te19_4 4.016371 1_555
Cs1_4 Te19_0 4.016371 1_655
Cs1_4 Cs5_0 4.899760 1_655
Cs1_4 Cs5_4 4.899760 1_555
Cs1_5 Te23_1 3.775294 1_655
Cs1_5 Te23_5 3.775294 1_555
Cs1_5 Te13_5 3.885675 1_555
Cs1_5 Te11_5 3.907132 1_555
Cs1_5 Te11_1 3.907132 1_655
Cs1_5 Te19_1 4.016371 1_655
Cs1_5 Te19_5 4.016371 1_555
Cs1_5 Cs5_1 4.899760 1_655
Cs1_5 Cs5_5 4.899760 1_555
Cs1_6 Te23_2 3.775294 1_655
Cs1_6 Te23_6 3.775294 1_555
Cs1_6 Te13_6 3.885675 1_555
Cs1_6 Te11_2 3.907132 1_655
Cs1_6 Te11_6 3.907132 1_555
Cs1_6 Te19_2 4.016371 1_655
Cs1_6 Te19_6 4.016371 1_555
Cs1_6 Cs5_2 4.899760 1_655
Cs1_6 Cs5_6 4.899760 1_555
Cs1_7 Te23_3 3.775294 1_655
Cs1_7 Te23_7 3.775294 1_555
Cs1_7 Te13_7 3.885675 1_555
Cs1_7 Te11_7 3.907132 1_555
Cs1_7 Te11_3 3.907132 1_655
Cs1_7 Te19_7 4.016371 1_555
Cs1_7 Te19_3 4.016371 1_655
Cs1_7 Cs5_7 4.899760 1_555
Cs1_7 Cs5_3 4.899760 1_655
Cs2_0 Te20_4 3.775294 1_455
Cs2_0 Te20_0 3.775294 1_555
Cs2_0 Te14_0 3.885675 1_555
Cs2_0 Te8_4 3.907132 1_455
Cs2_0 Te8_0 3.907132 1_555
Cs2_0 Te16_4 4.016371 1_455
Cs2_0 Te16_0 4.016371 1_555
Cs2_0 Cs2_4 4.462745 1_555
Cs2_0 Cs2_4 4.462745 1_455
Cs2_0 Cs4_4 4.899760 1_455
Cs2_0 Cs4_0 4.899760 1_555
Cs2_1 Te20_5 3.775294 1_455
Cs2_1 Te20_1 3.775294 1_555
Cs2_1 Te14_1 3.885675 1_555
Cs2_1 Te8_1 3.907132 1_555
Cs2_1 Te8_5 3.907132 1_455
Cs2_1 Te16_5 4.016371 1_455
Cs2_1 Te16_1 4.016371 1_555
Cs2_1 Cs2_5 4.462745 1_455
Cs2_1 Cs2_5 4.462745 1_555
Cs2_1 Cs4_5 4.899760 1_455
Cs2_1 Cs4_1 4.899760 1_555
Cs2_2 Te20_6 3.775294 1_455
Cs2_2 Te20_2 3.775294 1_555
Cs2_2 Te14_2 3.885675 1_555
Cs2_2 Te8_2 3.907132 1_555
Cs2_2 Te8_6 3.907132 1_455
Cs2_2 Te16_2 4.016371 1_555
Cs2_2 Te16_6 4.016371 1_455
Cs2_2 Cs2_6 4.462745 1_555
Cs2_2 Cs2_6 4.462745 1_455
Cs2_2 Cs4_2 4.899760 1_555
Cs2_2 Cs4_6 4.899760 1_455
Cs2_3 Te20_7 3.775294 1_455
Cs2_3 Te20_3 3.775294 1_555
Cs2_3 Te14_3 3.885675 1_555
Cs2_3 Te8_3 3.907132 1_555
Cs2_3 Te8_7 3.907132 1_455
Cs2_3 Te16_3 4.016371 1_555
Cs2_3 Te16_7 4.016371 1_455
Cs2_3 Cs2_7 4.462745 1_555
Cs2_3 Cs2_7 4.462745 1_455
Cs2_3 Cs4_3 4.899760 1_555
Cs2_3 Cs4_7 4.899760 1_455
Cs2_4 Te20_4 3.775294 1_555
Cs2_4 Te20_0 3.775294 1_555
Cs2_4 Te14_4 3.885675 1_555
Cs2_4 Te8_4 3.907132 1_555
Cs2_4 Te8_0 3.907132 1_555
Cs2_4 Te16_4 4.016371 1_555
Cs2_4 Te16_0 4.016371 1_555
Cs2_4 Cs4_0 4.899760 1_555
Cs2_4 Cs4_4 4.899760 1_555
Cs2_5 Te20_5 3.775294 1_555
Cs2_5 Te20_1 3.775294 1_555
Cs2_5 Te14_5 3.885675 1_555
Cs2_5 Te8_1 3.907132 1_555
Cs2_5 Te8_5 3.907132 1_555
Cs2_5 Te16_5 4.016371 1_555
Cs2_5 Te16_1 4.016371 1_555
Cs2_5 Cs4_1 4.899760 1_555
Cs2_5 Cs4_5 4.899760 1_555
Cs2_6 Te20_2 3.775294 1_555
Cs2_6 Te20_6 3.775294 1_555
Cs2_6 Te14_6 3.885675 1_555
Cs2_6 Te8_2 3.907132 1_555
Cs2_6 Te8_6 3.907132 1_555
Cs2_6 Te16_6 4.016371 1_555
Cs2_6 Te16_2 4.016371 1_555
Cs2_6 Cs4_2 4.899760 1_555
Cs2_6 Cs4_6 4.899760 1_555
Cs2_7 Te20_3 3.775294 1_555
Cs2_7 Te20_7 3.775294 1_555
Cs2_7 Te14_7 3.885675 1_555
Cs2_7 Te8_3 3.907132 1_555
Cs2_7 Te8_7 3.907132 1_555
Cs2_7 Te16_3 4.016371 1_555
Cs2_7 Te16_7 4.016371 1_555
Cs2_7 Cs4_3 4.899760 1_555
Cs2_7 Cs4_7 4.899760 1_555
Cs3_0 Te21_0 3.904533 1_555
Cs3_0 Te21_4 3.904533 1_455
Cs3_0 Te9_2 3.912589 1_555
Cs3_0 Te9_6 3.912589 1_455
Cs3_0 Te17_0 3.955366 1_555
Cs3_0 Te17_4 3.955366 1_455
Cs3_0 Te15_0 3.983597 1_555
Cs3_0 Cs3_4 4.462745 1_555
Cs3_0 Cs3_4 4.462745 1_455
Cs3_1 Te21_1 3.904533 1_555
Cs3_1 Te21_5 3.904533 1_455
Cs3_1 Te9_3 3.912589 1_555
Cs3_1 Te9_7 3.912589 1_455
Cs3_1 Te17_5 3.955366 1_455
Cs3_1 Te17_1 3.955366 1_555
Cs3_1 Te15_1 3.983597 1_555
Cs3_1 Cs3_5 4.462745 1_555
Cs3_1 Cs3_5 4.462745 1_455
Cs3_2 Te21_2 3.904533 1_555
Cs3_2 Te21_6 3.904533 1_455
Cs3_2 Te9_4 3.912589 1_465
Cs3_2 Te9_0 3.912589 1_565
Cs3_2 Te17_2 3.955366 1_555
Cs3_2 Te17_6 3.955366 1_455
Cs3_2 Te15_2 3.983597 1_555
Cs3_2 Cs3_6 4.462745 1_555
Cs3_2 Cs3_6 4.462745 1_455
Cs3_3 Te21_3 3.904533 1_555
Cs3_3 Te21_7 3.904533 1_455
Cs3_3 Te9_1 3.912589 1_565
Cs3_3 Te9_5 3.912589 1_465
Cs3_3 Te17_3 3.955366 1_555
Cs3_3 Te17_7 3.955366 1_455
Cs3_3 Te15_3 3.983597 1_555
Cs3_3 Cs3_7 4.462745 1_555
Cs3_3 Cs3_7 4.462745 1_455
Cs3_4 Te21_0 3.904533 1_555
Cs3_4 Te21_4 3.904533 1_555
Cs3_4 Te9_2 3.912589 1_555
Cs3_4 Te9_6 3.912589 1_555
Cs3_4 Te17_0 3.955366 1_555
Cs3_4 Te17_4 3.955366 1_555
Cs3_4 Te15_4 3.983597 1_555
Cs3_5 Te21_1 3.904533 1_555
Cs3_5 Te21_5 3.904533 1_555
Cs3_5 Te9_3 3.912589 1_555
Cs3_5 Te9_7 3.912589 1_555
Cs3_5 Te17_1 3.955366 1_555
Cs3_5 Te17_5 3.955366 1_555
Cs3_5 Te15_5 3.983597 1_555
Cs3_6 Te21_2 3.904533 1_555
Cs3_6 Te21_6 3.904533 1_555
Cs3_6 Te9_0 3.912589 1_565
Cs3_6 Te9_4 3.912589 1_565
Cs3_6 Te17_2 3.955366 1_555
Cs3_6 Te17_6 3.955366 1_555
Cs3_6 Te15_6 3.983597 1_555
Cs3_7 Te21_3 3.904533 1_555
Cs3_7 Te21_7 3.904533 1_555
Cs3_7 Te9_1 3.912589 1_565
Cs3_7 Te9_5 3.912589 1_565
Cs3_7 Te17_7 3.955366 1_555
Cs3_7 Te17_3 3.955366 1_555
Cs3_7 Te15_7 3.983597 1_555
Cs4_0 Te2_0 3.731570 1_555
Cs4_0 Te2_4 3.731570 1_555
Cs4_0 Te3_1 3.832779 1_554
Cs4_0 Te3_5 3.832779 1_554
Cs4_0 Te16_0 3.923571 1_555
Cs4_0 Te8_0 4.424603 1_555
Cs4_0 Cs4_4 4.462745 1_555
Cs4_0 Cs4_4 4.462745 1_455
Cs4_1 Te2_1 3.731570 1_555
Cs4_1 Te2_5 3.731570 1_555
Cs4_1 Te3_0 3.832779 1_555
Cs4_1 Te3_4 3.832779 1_555
Cs4_1 Te16_1 3.923571 1_555
Cs4_1 Te8_1 4.424603 1_555
Cs4_1 Cs4_5 4.462745 1_455
Cs4_1 Cs4_5 4.462745 1_555
Cs4_2 Te2_2 3.731570 1_555
Cs4_2 Te2_6 3.731570 1_555
Cs4_2 Te3_3 3.832779 1_554
Cs4_2 Te3_7 3.832779 1_554
Cs4_2 Te16_2 3.923571 1_555
Cs4_2 Te8_2 4.424603 1_555
Cs4_2 Cs4_6 4.462745 1_455
Cs4_2 Cs4_6 4.462745 1_555
Cs4_3 Te2_3 3.731570 1_555
Cs4_3 Te2_7 3.731570 1_555
Cs4_3 Te3_2 3.832779 1_555
Cs4_3 Te3_6 3.832779 1_555
Cs4_3 Te16_3 3.923571 1_555
Cs4_3 Te8_3 4.424603 1_555
Cs4_3 Cs4_7 4.462745 1_555
Cs4_3 Cs4_7 4.462745 1_455
Cs4_4 Te2_4 3.731570 1_555
Cs4_4 Te2_0 3.731570 1_655
Cs4_4 Te3_1 3.832779 1_654
Cs4_4 Te3_5 3.832779 1_554
Cs4_4 Te16_4 3.923571 1_555
Cs4_4 Te8_4 4.424603 1_555
Cs4_5 Te2_5 3.731570 1_555
Cs4_5 Te2_1 3.731570 1_655
Cs4_5 Te3_4 3.832779 1_555
Cs4_5 Te3_0 3.832779 1_655
Cs4_5 Te16_5 3.923571 1_555
Cs4_5 Te8_5 4.424603 1_555
Cs4_6 Te2_6 3.731570 1_555
Cs4_6 Te2_2 3.731570 1_655
Cs4_6 Te3_7 3.832779 1_554
Cs4_6 Te3_3 3.832779 1_654
Cs4_6 Te16_6 3.923571 1_555
Cs4_6 Te8_6 4.424603 1_555
Cs4_7 Te2_7 3.731570 1_555
Cs4_7 Te2_3 3.731570 1_655
Cs4_7 Te3_2 3.832779 1_655
Cs4_7 Te3_6 3.832779 1_555
Cs4_7 Te16_7 3.923571 1_555
Cs4_7 Te8_7 4.424603 1_555
Cs5_0 Te1_0 3.731570 1_555
Cs5_0 Te1_4 3.731570 1_455
Cs5_0 Te0_0 3.832779 1_555
Cs5_0 Te0_4 3.832779 1_455
Cs5_0 Te19_0 3.923571 1_555
Cs5_0 Te11_0 4.424603 1_555
Cs5_0 Cs5_4 4.462745 1_555
Cs5_0 Cs5_4 4.462745 1_455
Cs5_1 Te1_5 3.731570 1_455
Cs5_1 Te1_1 3.731570 1_555
Cs5_1 Te0_1 3.832779 1_555
Cs5_1 Te0_5 3.832779 1_455
Cs5_1 Te19_1 3.923571 1_555
Cs5_1 Te11_1 4.424603 1_555
Cs5_1 Cs5_5 4.462745 1_555
Cs5_1 Cs5_5 4.462745 1_455
Cs5_2 Te1_2 3.731570 1_555
Cs5_2 Te1_6 3.731570 1_455
Cs5_2 Te0_6 3.832779 1_455
Cs5_2 Te0_2 3.832779 1_555
Cs5_2 Te19_2 3.923571 1_555
Cs5_2 Te11_2 4.424603 1_555
Cs5_2 Cs5_6 4.462745 1_455
Cs5_2 Cs5_6 4.462745 1_555
Cs5_3 Te1_7 3.731570 1_455
Cs5_3 Te1_3 3.731570 1_555
Cs5_3 Te0_7 3.832779 1_455
Cs5_3 Te0_3 3.832779 1_555
Cs5_3 Te19_3 3.923571 1_555
Cs5_3 Te11_3 4.424603 1_555
Cs5_3 Cs5_7 4.462745 1_555
Cs5_3 Cs5_7 4.462745 1_455
Cs5_4 Te1_4 3.731570 1_555
Cs5_4 Te1_0 3.731570 1_555
Cs5_4 Te0_0 3.832779 1_555
Cs5_4 Te0_4 3.832779 1_555
Cs5_4 Te19_4 3.923571 1_555
Cs5_4 Te11_4 4.424603 1_555
Cs5_5 Te1_1 3.731570 1_555
Cs5_5 Te1_5 3.731570 1_555
Cs5_5 Te0_1 3.832779 1_555
Cs5_5 Te0_5 3.832779 1_555
Cs5_5 Te19_5 3.923571 1_555
Cs5_5 Te11_5 4.424603 1_555
Cs5_6 Te1_2 3.731570 1_555
Cs5_6 Te1_6 3.731570 1_555
Cs5_6 Te0_2 3.832779 1_555
Cs5_6 Te0_6 3.832779 1_555
Cs5_6 Te19_6 3.923571 1_555
Cs5_6 Te11_6 4.424603 1_555
Cs5_7 Te1_3 3.731570 1_555
Cs5_7 Te1_7 3.731570 1_555
Cs5_7 Te0_7 3.832779 1_555
Cs5_7 Te0_3 3.832779 1_555
Cs5_7 Te19_7 3.923571 1_555
Cs5_7 Te11_7 4.424603 1_555
Tb0_0 Te20_0 3.032935 1_555
Tb0_0 Te0_0 3.051576 1_555
Tb0_0 Te10_4 3.055717 1_555
Tb0_0 Te10_0 3.055717 1_555
Tb0_0 Te7_0 3.233463 1_555
Tb0_0 Te7_4 3.233463 1_555
Tb0_1 Te20_1 3.032935 1_555
Tb0_1 Te0_1 3.051576 1_555
Tb0_1 Te10_1 3.055717 1_555
Tb0_1 Te10_5 3.055717 1_555
Tb0_1 Te7_5 3.233463 1_555
Tb0_1 Te7_1 3.233463 1_555
Tb0_2 Te20_2 3.032935 1_555
Tb0_2 Te0_2 3.051576 1_555
Tb0_2 Te10_6 3.055717 1_555
Tb0_2 Te10_2 3.055717 1_555
Tb0_2 Te7_2 3.233463 1_555
Tb0_2 Te7_6 3.233463 1_555
Tb0_3 Te20_3 3.032935 1_555
Tb0_3 Te0_3 3.051576 1_555
Tb0_3 Te10_3 3.055717 1_555
Tb0_3 Te10_7 3.055717 1_555
Tb0_3 Te7_3 3.233463 1_555
Tb0_3 Te7_7 3.233463 1_555
Tb0_4 Te20_4 3.032935 1_555
Tb0_4 Te0_4 3.051576 1_555
Tb0_4 Te10_0 3.055717 1_655
Tb0_4 Te10_4 3.055717 1_555
Tb0_4 Te7_4 3.233463 1_555
Tb0_4 Te7_0 3.233463 1_655
Tb0_5 Te20_5 3.032935 1_555
Tb0_5 Te0_5 3.051576 1_555
Tb0_5 Te10_5 3.055717 1_555
Tb0_5 Te10_1 3.055717 1_655
Tb0_5 Te7_5 3.233463 1_555
Tb0_5 Te7_1 3.233463 1_655
Tb0_6 Te20_6 3.032935 1_555
Tb0_6 Te0_6 3.051576 1_555
Tb0_6 Te10_6 3.055717 1_555
Tb0_6 Te10_2 3.055717 1_655
Tb0_6 Te7_6 3.233463 1_555
Tb0_6 Te7_2 3.233463 1_655
Tb0_7 Te20_7 3.032935 1_555
Tb0_7 Te0_7 3.051576 1_555
Tb0_7 Te10_7 3.055717 1_555
Tb0_7 Te10_3 3.055717 1_655
Tb0_7 Te7_3 3.233463 1_655
Tb0_7 Te7_7 3.233463 1_555
Tb1_0 Te21_0 3.041571 1_555
Tb1_0 Te1_0 3.063854 1_555
Tb1_0 Te11_4 3.074299 1_555
Tb1_0 Te11_0 3.074299 1_555
Tb1_0 Te6_6 3.202608 1_555
Tb1_0 Te6_2 3.202608 1_555
Tb1_1 Te21_1 3.041571 1_555
Tb1_1 Te1_1 3.063854 1_555
Tb1_1 Te11_1 3.074299 1_555
Tb1_1 Te11_5 3.074299 1_555
Tb1_1 Te6_3 3.202608 1_555
Tb1_1 Te6_7 3.202608 1_555
Tb1_2 Te21_2 3.041571 1_555
Tb1_2 Te1_2 3.063854 1_555
Tb1_2 Te11_6 3.074299 1_555
Tb1_2 Te11_2 3.074299 1_555
Tb1_2 Te6_4 3.202608 1_565
Tb1_2 Te6_0 3.202608 1_565
Tb1_3 Te21_3 3.041571 1_555
Tb1_3 Te1_3 3.063854 1_555
Tb1_3 Te11_3 3.074299 1_555
Tb1_3 Te11_7 3.074299 1_555
Tb1_3 Te6_1 3.202608 1_565
Tb1_3 Te6_5 3.202608 1_565
Tb1_4 Te21_4 3.041571 1_555
Tb1_4 Te1_4 3.063854 1_555
Tb1_4 Te11_4 3.074299 1_555
Tb1_4 Te11_0 3.074299 1_655
Tb1_4 Te6_2 3.202608 1_655
Tb1_4 Te6_6 3.202608 1_555
Tb1_5 Te21_5 3.041571 1_555
Tb1_5 Te1_5 3.063854 1_555
Tb1_5 Te11_5 3.074299 1_555
Tb1_5 Te11_1 3.074299 1_655
Tb1_5 Te6_3 3.202608 1_655
Tb1_5 Te6_7 3.202608 1_555
Tb1_6 Te21_6 3.041571 1_555
Tb1_6 Te1_6 3.063854 1_555
Tb1_6 Te11_6 3.074299 1_555
Tb1_6 Te11_2 3.074299 1_655
Tb1_6 Te6_4 3.202608 1_565
Tb1_6 Te6_0 3.202608 1_665
Tb1_7 Te21_7 3.041571 1_555
Tb1_7 Te1_7 3.063854 1_555
Tb1_7 Te11_7 3.074299 1_555
Tb1_7 Te11_3 3.074299 1_655
Tb1_7 Te6_5 3.202608 1_565
Tb1_7 Te6_1 3.202608 1_665
Tb2_0 Te22_0 3.041571 1_555
Tb2_0 Te2_0 3.063854 1_555
Tb2_0 Te8_4 3.074299 1_455
Tb2_0 Te8_0 3.074299 1_555
Tb2_0 Te5_2 3.202608 1_545
Tb2_0 Te5_6 3.202608 1_445
Tb2_1 Te22_1 3.041571 1_555
Tb2_1 Te2_1 3.063854 1_555
Tb2_1 Te8_1 3.074299 1_555
Tb2_1 Te8_5 3.074299 1_455
Tb2_1 Te5_7 3.202608 1_445
Tb2_1 Te5_3 3.202608 1_545
Tb2_2 Te22_2 3.041571 1_555
Tb2_2 Te2_2 3.063854 1_555
Tb2_2 Te8_2 3.074299 1_555
Tb2_2 Te8_6 3.074299 1_455
Tb2_2 Te5_0 3.202608 1_555
Tb2_2 Te5_4 3.202608 1_455
Tb2_3 Te22_3 3.041571 1_555
Tb2_3 Te2_3 3.063854 1_555
Tb2_3 Te8_3 3.074299 1_555
Tb2_3 Te8_7 3.074299 1_455
Tb2_3 Te5_1 3.202608 1_555
Tb2_3 Te5_5 3.202608 1_455
Tb2_4 Te22_4 3.041571 1_555
Tb2_4 Te2_4 3.063854 1_555
Tb2_4 Te8_0 3.074299 1_555
Tb2_4 Te8_4 3.074299 1_555
Tb2_4 Te5_2 3.202608 1_545
Tb2_4 Te5_6 3.202608 1_545
Tb2_5 Te22_5 3.041571 1_555
Tb2_5 Te2_5 3.063854 1_555
Tb2_5 Te8_5 3.074299 1_555
Tb2_5 Te8_1 3.074299 1_555
Tb2_5 Te5_7 3.202608 1_545
Tb2_5 Te5_3 3.202608 1_545
Tb2_6 Te22_6 3.041571 1_555
Tb2_6 Te2_6 3.063854 1_555
Tb2_6 Te8_2 3.074299 1_555
Tb2_6 Te8_6 3.074299 1_555
Tb2_6 Te5_0 3.202608 1_555
Tb2_6 Te5_4 3.202608 1_555
Tb2_7 Te22_7 3.041571 1_555
Tb2_7 Te2_7 3.063854 1_555
Tb2_7 Te8_3 3.074299 1_555
Tb2_7 Te8_7 3.074299 1_555
Tb2_7 Te5_5 3.202608 1_555
Tb2_7 Te5_1 3.202608 1_555
Tb3_0 Te23_0 3.032935 1_555
Tb3_0 Te3_0 3.051576 1_555
Tb3_0 Te9_0 3.055717 1_555
Tb3_0 Te9_4 3.055717 1_455
Tb3_0 Te4_0 3.233463 1_555
Tb3_0 Te4_4 3.233463 1_455
Tb3_1 Te23_1 3.032935 1_555
Tb3_1 Te3_1 3.051576 1_555
Tb3_1 Te9_5 3.055717 1_455
Tb3_1 Te9_1 3.055717 1_555
Tb3_1 Te4_5 3.233463 1_455
Tb3_1 Te4_1 3.233463 1_555
Tb3_2 Te23_2 3.032935 1_555
Tb3_2 Te3_2 3.051576 1_555
Tb3_2 Te9_6 3.055717 1_455
Tb3_2 Te9_2 3.055717 1_555
Tb3_2 Te4_6 3.233463 1_455
Tb3_2 Te4_2 3.233463 1_555
Tb3_3 Te23_3 3.032935 1_555
Tb3_3 Te3_3 3.051576 1_555
Tb3_3 Te9_7 3.055717 1_455
Tb3_3 Te9_3 3.055717 1_555
Tb3_3 Te4_7 3.233463 1_455
Tb3_3 Te4_3 3.233463 1_555
Tb3_4 Te23_4 3.032935 1_555
Tb3_4 Te3_4 3.051576 1_555
Tb3_4 Te9_0 3.055717 1_555
Tb3_4 Te9_4 3.055717 1_555
Tb3_4 Te4_4 3.233463 1_555
Tb3_4 Te4_0 3.233463 1_555
Tb3_5 Te23_5 3.032935 1_555
Tb3_5 Te3_5 3.051576 1_555
Tb3_5 Te9_5 3.055717 1_555
Tb3_5 Te9_1 3.055717 1_555
Tb3_5 Te4_1 3.233463 1_555
Tb3_5 Te4_5 3.233463 1_555
Tb3_6 Te23_6 3.032935 1_555
Tb3_6 Te3_6 3.051576 1_555
Tb3_6 Te9_2 3.055717 1_555
Tb3_6 Te9_6 3.055717 1_555
Tb3_6 Te4_2 3.233463 1_555
Tb3_6 Te4_6 3.233463 1_555
Tb3_7 Te23_7 3.032935 1_555
Tb3_7 Te3_7 3.051576 1_555
Tb3_7 Te9_7 3.055717 1_555
Tb3_7 Te9_3 3.055717 1_555
Tb3_7 Te4_3 3.233463 1_555
Tb3_7 Te4_7 3.233463 1_555
Tb4_0 Te13_0 3.067357 1_555
Tb4_0 Te12_0 3.068835 1_555
Tb4_0 Te18_0 3.101922 1_555
Tb4_0 Te18_4 3.101922 1_555
Tb4_0 Te19_0 3.134555 1_555
Tb4_0 Te19_4 3.134555 1_555
Tb4_1 Te13_1 3.067357 1_555
Tb4_1 Te12_1 3.068835 1_555
Tb4_1 Te18_1 3.101922 1_555
Tb4_1 Te18_5 3.101922 1_555
Tb4_1 Te19_1 3.134555 1_555
Tb4_1 Te19_5 3.134555 1_555
Tb4_2 Te13_2 3.067357 1_555
Tb4_2 Te12_2 3.068835 1_555
Tb4_2 Te18_6 3.101922 1_555
Tb4_2 Te18_2 3.101922 1_555
Tb4_2 Te19_2 3.134555 1_555
Tb4_2 Te19_6 3.134555 1_555
Tb4_3 Te13_3 3.067357 1_555
Tb4_3 Te12_3 3.068835 1_555
Tb4_3 Te18_3 3.101922 1_555
Tb4_3 Te18_7 3.101922 1_555
Tb4_3 Te19_7 3.134555 1_555
Tb4_3 Te19_3 3.134555 1_555
Tb4_4 Te13_4 3.067357 1_555
Tb4_4 Te12_4 3.068835 1_555
Tb4_4 Te18_0 3.101922 1_655
Tb4_4 Te18_4 3.101922 1_555
Tb4_4 Te19_4 3.134555 1_555
Tb4_4 Te19_0 3.134555 1_655
Tb4_5 Te13_5 3.067357 1_555
Tb4_5 Te12_5 3.068835 1_555
Tb4_5 Te18_5 3.101922 1_555
Tb4_5 Te18_1 3.101922 1_655
Tb4_5 Te19_5 3.134555 1_555
Tb4_5 Te19_1 3.134555 1_655
Tb4_6 Te13_6 3.067357 1_555
Tb4_6 Te12_6 3.068835 1_555
Tb4_6 Te18_2 3.101922 1_655
Tb4_6 Te18_6 3.101922 1_555
Tb4_6 Te19_2 3.134555 1_655
Tb4_6 Te19_6 3.134555 1_555
Tb4_7 Te13_7 3.067357 1_555
Tb4_7 Te12_7 3.068835 1_555
Tb4_7 Te18_7 3.101922 1_555
Tb4_7 Te18_3 3.101922 1_655
Tb4_7 Te19_7 3.134555 1_555
Tb4_7 Te19_3 3.134555 1_655
Tb5_0 Te14_0 3.067357 1_555
Tb5_0 Te15_1 3.068835 1_554
Tb5_0 Te17_1 3.101922 1_554
Tb5_0 Te17_5 3.101922 1_454
Tb5_0 Te16_0 3.134555 1_555
Tb5_0 Te16_4 3.134555 1_455
Tb5_1 Te14_1 3.067357 1_555
Tb5_1 Te15_0 3.068835 1_555
Tb5_1 Te17_4 3.101922 1_455
Tb5_1 Te17_0 3.101922 1_555
Tb5_1 Te16_1 3.134555 1_555
Tb5_1 Te16_5 3.134555 1_455
Tb5_2 Te14_2 3.067357 1_555
Tb5_2 Te15_3 3.068835 1_554
Tb5_2 Te17_7 3.101922 1_454
Tb5_2 Te17_3 3.101922 1_554
Tb5_2 Te16_2 3.134555 1_555
Tb5_2 Te16_6 3.134555 1_455
Tb5_3 Te14_3 3.067357 1_555
Tb5_3 Te15_2 3.068835 1_555
Tb5_3 Te17_2 3.101922 1_555
Tb5_3 Te17_6 3.101922 1_455
Tb5_3 Te16_3 3.134555 1_555
Tb5_3 Te16_7 3.134555 1_455
Tb5_4 Te14_4 3.067357 1_555
Tb5_4 Te15_5 3.068835 1_554
Tb5_4 Te17_1 3.101922 1_554
Tb5_4 Te17_5 3.101922 1_554
Tb5_4 Te16_0 3.134555 1_555
Tb5_4 Te16_4 3.134555 1_555
Tb5_5 Te14_5 3.067357 1_555
Tb5_5 Te15_4 3.068835 1_555
Tb5_5 Te17_0 3.101922 1_555
Tb5_5 Te17_4 3.101922 1_555
Tb5_5 Te16_5 3.134555 1_555
Tb5_5 Te16_1 3.134555 1_555
Tb5_6 Te14_6 3.067357 1_555
Tb5_6 Te15_7 3.068835 1_554
Tb5_6 Te17_7 3.101922 1_554
Tb5_6 Te17_3 3.101922 1_554
Tb5_6 Te16_6 3.134555 1_555
Tb5_6 Te16_2 3.134555 1_555
Tb5_7 Te14_7 3.067357 1_555
Tb5_7 Te15_6 3.068835 1_555
Tb5_7 Te17_2 3.101922 1_555
Tb5_7 Te17_6 3.101922 1_555
Tb5_7 Te16_3 3.134555 1_555
Tb5_7 Te16_7 3.134555 1_555
Tb6_0 Te16_1 3.074243 1_555
Tb6_0 Te3_4 3.096153 1_555
Tb6_0 Te3_0 3.096153 1_555
Tb6_0 Te15_0 3.100591 1_555
Tb6_0 Te15_4 3.100591 1_555
Tb6_0 Te4_0 3.201794 1_555
Tb6_1 Te16_0 3.074243 1_556
Tb6_1 Te3_1 3.096153 1_555
Tb6_1 Te3_5 3.096153 1_555
Tb6_1 Te15_5 3.100591 1_555
Tb6_1 Te15_1 3.100591 1_555
Tb6_1 Te4_1 3.201794 1_555
Tb6_2 Te16_3 3.074243 1_555
Tb6_2 Te3_2 3.096153 1_555
Tb6_2 Te3_6 3.096153 1_555
Tb6_2 Te15_2 3.100591 1_555
Tb6_2 Te15_6 3.100591 1_555
Tb6_2 Te4_2 3.201794 1_555
Tb6_3 Te16_2 3.074243 1_556
Tb6_3 Te3_3 3.096153 1_555
Tb6_3 Te3_7 3.096153 1_555
Tb6_3 Te15_3 3.100591 1_555
Tb6_3 Te15_7 3.100591 1_555
Tb6_3 Te4_3 3.201794 1_555
Tb6_4 Te16_5 3.074243 1_555
Tb6_4 Te3_4 3.096153 1_555
Tb6_4 Te3_0 3.096153 1_655
Tb6_4 Te15_4 3.100591 1_555
Tb6_4 Te15_0 3.100591 1_655
Tb6_4 Te4_4 3.201794 1_555
Tb6_5 Te16_4 3.074243 1_556
Tb6_5 Te3_1 3.096153 1_655
Tb6_5 Te3_5 3.096153 1_555
Tb6_5 Te15_1 3.100591 1_655
Tb6_5 Te15_5 3.100591 1_555
Tb6_5 Te4_5 3.201794 1_555
Tb6_6 Te16_7 3.074243 1_555
Tb6_6 Te3_2 3.096153 1_655
Tb6_6 Te3_6 3.096153 1_555
Tb6_6 Te15_2 3.100591 1_655
Tb6_6 Te15_6 3.100591 1_555
Tb6_6 Te4_6 3.201794 1_555
Tb6_7 Te16_6 3.074243 1_556
Tb6_7 Te3_3 3.096153 1_655
Tb6_7 Te3_7 3.096153 1_555
Tb6_7 Te15_3 3.100591 1_655
Tb6_7 Te15_7 3.100591 1_555
Tb6_7 Te4_7 3.201794 1_555
Tb7_0 Te17_1 3.033157 1_554
Tb7_0 Te2_2 3.077690 1_555
Tb7_0 Te2_6 3.077690 1_555
Tb7_0 Te14_0 3.096454 1_555
Tb7_0 Te14_4 3.096454 1_555
Tb7_0 Te5_0 3.235332 1_555
Tb7_1 Te17_0 3.033157 1_555
Tb7_1 Te2_3 3.077690 1_555
Tb7_1 Te2_7 3.077690 1_555
Tb7_1 Te14_1 3.096454 1_555
Tb7_1 Te14_5 3.096454 1_555
Tb7_1 Te5_1 3.235332 1_555
Tb7_2 Te17_3 3.033157 1_554
Tb7_2 Te2_4 3.077690 1_565
Tb7_2 Te2_0 3.077690 1_565
Tb7_2 Te14_2 3.096454 1_555
Tb7_2 Te14_6 3.096454 1_555
Tb7_2 Te5_2 3.235332 1_555
Tb7_3 Te17_2 3.033157 1_555
Tb7_3 Te2_1 3.077690 1_565
Tb7_3 Te2_5 3.077690 1_565
Tb7_3 Te14_7 3.096454 1_555
Tb7_3 Te14_3 3.096454 1_555
Tb7_3 Te5_3 3.235332 1_555
Tb7_4 Te17_5 3.033157 1_554
Tb7_4 Te2_6 3.077690 1_555
Tb7_4 Te2_2 3.077690 1_655
Tb7_4 Te14_4 3.096454 1_555
Tb7_4 Te14_0 3.096454 1_655
Tb7_4 Te5_4 3.235332 1_555
Tb7_5 Te17_4 3.033157 1_555
Tb7_5 Te2_3 3.077690 1_655
Tb7_5 Te2_7 3.077690 1_555
Tb7_5 Te14_5 3.096454 1_555
Tb7_5 Te14_1 3.096454 1_655
Tb7_5 Te5_5 3.235332 1_555
Tb7_6 Te17_7 3.033157 1_554
Tb7_6 Te2_4 3.077690 1_565
Tb7_6 Te2_0 3.077690 1_665
Tb7_6 Te14_2 3.096454 1_655
Tb7_6 Te14_6 3.096454 1_555
Tb7_6 Te5_6 3.235332 1_555
Tb7_7 Te17_6 3.033157 1_555
Tb7_7 Te2_5 3.077690 1_565
Tb7_7 Te2_1 3.077690 1_665
Tb7_7 Te14_7 3.096454 1_555
Tb7_7 Te14_3 3.096454 1_655
Tb7_7 Te5_7 3.235332 1_555
Tb8_0 Te18_0 3.033157 1_555
Tb8_0 Te1_2 3.077690 1_545
Tb8_0 Te1_6 3.077690 1_445
Tb8_0 Te13_4 3.096454 1_455
Tb8_0 Te13_0 3.096454 1_555
Tb8_0 Te6_0 3.235332 1_555
Tb8_1 Te18_1 3.033157 1_555
Tb8_1 Te1_3 3.077690 1_545
Tb8_1 Te1_7 3.077690 1_445
Tb8_1 Te13_1 3.096454 1_555
Tb8_1 Te13_5 3.096454 1_455
Tb8_1 Te6_1 3.235332 1_555
Tb8_2 Te18_2 3.033157 1_555
Tb8_2 Te1_0 3.077690 1_555
Tb8_2 Te1_4 3.077690 1_455
Tb8_2 Te13_2 3.096454 1_555
Tb8_2 Te13_6 3.096454 1_455
Tb8_2 Te6_2 3.235332 1_555
Tb8_3 Te18_3 3.033157 1_555
Tb8_3 Te1_5 3.077690 1_455
Tb8_3 Te1_1 3.077690 1_555
Tb8_3 Te13_3 3.096454 1_555
Tb8_3 Te13_7 3.096454 1_455
Tb8_3 Te6_3 3.235332 1_555
Tb8_4 Te18_4 3.033157 1_555
Tb8_4 Te1_2 3.077690 1_545
Tb8_4 Te1_6 3.077690 1_545
Tb8_4 Te13_4 3.096454 1_555
Tb8_4 Te13_0 3.096454 1_555
Tb8_4 Te6_4 3.235332 1_555
Tb8_5 Te18_5 3.033157 1_555
Tb8_5 Te1_3 3.077690 1_545
Tb8_5 Te1_7 3.077690 1_545
Tb8_5 Te13_1 3.096454 1_555
Tb8_5 Te13_5 3.096454 1_555
Tb8_5 Te6_5 3.235332 1_555
Tb8_6 Te18_6 3.033157 1_555
Tb8_6 Te1_0 3.077690 1_555
Tb8_6 Te1_4 3.077690 1_555
Tb8_6 Te13_2 3.096454 1_555
Tb8_6 Te13_6 3.096454 1_555
Tb8_6 Te6_6 3.235332 1_555
Tb8_7 Te18_7 3.033157 1_555
Tb8_7 Te1_1 3.077690 1_555
Tb8_7 Te1_5 3.077690 1_555
Tb8_7 Te13_7 3.096454 1_555
Tb8_7 Te13_3 3.096454 1_555
Tb8_7 Te6_7 3.235332 1_555
Tb9_0 Te19_0 3.074243 1_555
Tb9_0 Te0_4 3.096153 1_455
Tb9_0 Te0_0 3.096153 1_555
Tb9_0 Te12_0 3.100591 1_555
Tb9_0 Te12_4 3.100591 1_455
Tb9_0 Te7_0 3.201794 1_555
Tb9_1 Te19_1 3.074243 1_555
Tb9_1 Te0_5 3.096153 1_455
Tb9_1 Te0_1 3.096153 1_555
Tb9_1 Te12_5 3.100591 1_455
Tb9_1 Te12_1 3.100591 1_555
Tb9_1 Te7_1 3.201794 1_555
Tb9_2 Te19_2 3.074243 1_555
Tb9_2 Te0_6 3.096153 1_455
Tb9_2 Te0_2 3.096153 1_555
Tb9_2 Te12_2 3.100591 1_555
Tb9_2 Te12_6 3.100591 1_455
Tb9_2 Te7_2 3.201794 1_555
Tb9_3 Te19_3 3.074243 1_555
Tb9_3 Te0_3 3.096153 1_555
Tb9_3 Te0_7 3.096153 1_455
Tb9_3 Te12_3 3.100591 1_555
Tb9_3 Te12_7 3.100591 1_455
Tb9_3 Te7_3 3.201794 1_555
Tb9_4 Te19_4 3.074243 1_555
Tb9_4 Te0_0 3.096153 1_555
Tb9_4 Te0_4 3.096153 1_555
Tb9_4 Te12_4 3.100591 1_555
Tb9_4 Te12_0 3.100591 1_555
Tb9_4 Te7_4 3.201794 1_555
Tb9_5 Te19_5 3.074243 1_555
Tb9_5 Te0_1 3.096153 1_555
Tb9_5 Te0_5 3.096153 1_555
Tb9_5 Te12_1 3.100591 1_555
Tb9_5 Te12_5 3.100591 1_555
Tb9_5 Te7_5 3.201794 1_555
Tb9_6 Te19_6 3.074243 1_555
Tb9_6 Te0_2 3.096153 1_555
Tb9_6 Te0_6 3.096153 1_555
Tb9_6 Te12_2 3.100591 1_555
Tb9_6 Te12_6 3.100591 1_555
Tb9_6 Te7_6 3.201794 1_555
Tb9_7 Te19_7 3.074243 1_555
Tb9_7 Te0_3 3.096153 1_555
Tb9_7 Te0_7 3.096153 1_555
Tb9_7 Te12_3 3.100591 1_555
Tb9_7 Te12_7 3.100591 1_555
Tb9_7 Te7_7 3.201794 1_555
Tb10_0 Te22_0 3.037466 1_555
Tb10_0 Te22_4 3.037466 1_555
Tb10_0 Te12_0 3.083365 1_555
Tb10_0 Te8_0 3.123710 1_555
Tb10_0 Te7_4 3.193017 1_555
Tb10_0 Te7_0 3.193017 1_555
Tb10_1 Te22_1 3.037466 1_555
Tb10_1 Te22_5 3.037466 1_555
Tb10_1 Te12_1 3.083365 1_555
Tb10_1 Te8_1 3.123710 1_555
Tb10_1 Te7_1 3.193017 1_555
Tb10_1 Te7_5 3.193017 1_555
Tb10_2 Te22_6 3.037466 1_555
Tb10_2 Te22_2 3.037466 1_555
Tb10_2 Te12_2 3.083365 1_555
Tb10_2 Te8_2 3.123710 1_555
Tb10_2 Te7_2 3.193017 1_555
Tb10_2 Te7_6 3.193017 1_555
Tb10_3 Te22_3 3.037466 1_555
Tb10_3 Te22_7 3.037466 1_555
Tb10_3 Te12_3 3.083365 1_555
Tb10_3 Te8_3 3.123710 1_555
Tb10_3 Te7_7 3.193017 1_555
Tb10_3 Te7_3 3.193017 1_555
Tb10_4 Te22_4 3.037466 1_555
Tb10_4 Te22_0 3.037466 1_655
Tb10_4 Te12_4 3.083365 1_555
Tb10_4 Te8_4 3.123710 1_555
Tb10_4 Te7_0 3.193017 1_655
Tb10_4 Te7_4 3.193017 1_555
Tb10_5 Te22_5 3.037466 1_555
Tb10_5 Te22_1 3.037466 1_655
Tb10_5 Te12_5 3.083365 1_555
Tb10_5 Te8_5 3.123710 1_555
Tb10_5 Te7_1 3.193017 1_655
Tb10_5 Te7_5 3.193017 1_555
Tb10_6 Te22_6 3.037466 1_555
Tb10_6 Te22_2 3.037466 1_655
Tb10_6 Te12_6 3.083365 1_555
Tb10_6 Te8_6 3.123710 1_555
Tb10_6 Te7_6 3.193017 1_555
Tb10_6 Te7_2 3.193017 1_655
Tb10_7 Te22_7 3.037466 1_555
Tb10_7 Te22_3 3.037466 1_655
Tb10_7 Te12_7 3.083365 1_555
Tb10_7 Te8_7 3.123710 1_555
Tb10_7 Te7_7 3.193017 1_555
Tb10_7 Te7_3 3.193017 1_655
Tb11_0 Te23_0 3.037014 1_555
Tb11_0 Te23_4 3.037014 1_555
Tb11_0 Te9_0 3.076761 1_555
Tb11_0 Te13_0 3.086078 1_555
Tb11_0 Te6_0 3.183257 1_555
Tb11_0 Te6_4 3.183257 1_555
Tb11_1 Te23_1 3.037014 1_555
Tb11_1 Te23_5 3.037014 1_555
Tb11_1 Te9_1 3.076761 1_555
Tb11_1 Te13_1 3.086078 1_555
Tb11_1 Te6_1 3.183257 1_555
Tb11_1 Te6_5 3.183257 1_555
Tb11_2 Te23_6 3.037014 1_555
Tb11_2 Te23_2 3.037014 1_555
Tb11_2 Te9_2 3.076761 1_555
Tb11_2 Te13_2 3.086078 1_555
Tb11_2 Te6_2 3.183257 1_555
Tb11_2 Te6_6 3.183257 1_555
Tb11_3 Te23_3 3.037014 1_555
Tb11_3 Te23_7 3.037014 1_555
Tb11_3 Te9_3 3.076761 1_555
Tb11_3 Te13_3 3.086078 1_555
Tb11_3 Te6_3 3.183257 1_555
Tb11_3 Te6_7 3.183257 1_555
Tb11_4 Te23_0 3.037014 1_655
Tb11_4 Te23_4 3.037014 1_555
Tb11_4 Te9_4 3.076761 1_555
Tb11_4 Te13_4 3.086078 1_555
Tb11_4 Te6_0 3.183257 1_655
Tb11_4 Te6_4 3.183257 1_555
Tb11_5 Te23_5 3.037014 1_555
Tb11_5 Te23_1 3.037014 1_655
Tb11_5 Te9_5 3.076761 1_555
Tb11_5 Te13_5 3.086078 1_555
Tb11_5 Te6_5 3.183257 1_555
Tb11_5 Te6_1 3.183257 1_655
Tb11_6 Te23_6 3.037014 1_555
Tb11_6 Te23_2 3.037014 1_655
Tb11_6 Te9_6 3.076761 1_555
Tb11_6 Te13_6 3.086078 1_555
Tb11_6 Te6_6 3.183257 1_555
Tb11_6 Te6_2 3.183257 1_655
Tb11_7 Te23_3 3.037014 1_655
Tb11_7 Te23_7 3.037014 1_555
Tb11_7 Te9_7 3.076761 1_555
Tb11_7 Te13_7 3.086078 1_555
Tb11_7 Te6_7 3.183257 1_555
Tb11_7 Te6_3 3.183257 1_655
Tb12_0 Te20_0 3.037014 1_555
Tb12_0 Te20_4 3.037014 1_455
Tb12_0 Te10_0 3.076761 1_555
Tb12_0 Te14_0 3.086078 1_555
Tb12_0 Te5_4 3.183257 1_455
Tb12_0 Te5_0 3.183257 1_555
Tb12_1 Te20_5 3.037014 1_455
Tb12_1 Te20_1 3.037014 1_555
Tb12_1 Te10_1 3.076761 1_555
Tb12_1 Te14_1 3.086078 1_555
Tb12_1 Te5_5 3.183257 1_455
Tb12_1 Te5_1 3.183257 1_555
Tb12_2 Te20_2 3.037014 1_555
Tb12_2 Te20_6 3.037014 1_455
Tb12_2 Te10_2 3.076761 1_555
Tb12_2 Te14_2 3.086078 1_555
Tb12_2 Te5_6 3.183257 1_455
Tb12_2 Te5_2 3.183257 1_555
Tb12_3 Te20_3 3.037014 1_555
Tb12_3 Te20_7 3.037014 1_455
Tb12_3 Te10_3 3.076761 1_555
Tb12_3 Te14_3 3.086078 1_555
Tb12_3 Te5_7 3.183257 1_455
Tb12_3 Te5_3 3.183257 1_555
Tb12_4 Te20_0 3.037014 1_555
Tb12_4 Te20_4 3.037014 1_555
Tb12_4 Te10_4 3.076761 1_555
Tb12_4 Te14_4 3.086078 1_555
Tb12_4 Te5_0 3.183257 1_555
Tb12_4 Te5_4 3.183257 1_555
Tb12_5 Te20_5 3.037014 1_555
Tb12_5 Te20_1 3.037014 1_555
Tb12_5 Te10_5 3.076761 1_555
Tb12_5 Te14_5 3.086078 1_555
Tb12_5 Te5_5 3.183257 1_555
Tb12_5 Te5_1 3.183257 1_555
Tb12_6 Te20_2 3.037014 1_555
Tb12_6 Te20_6 3.037014 1_555
Tb12_6 Te10_6 3.076761 1_555
Tb12_6 Te14_6 3.086078 1_555
Tb12_6 Te5_6 3.183257 1_555
Tb12_6 Te5_2 3.183257 1_555
Tb12_7 Te20_3 3.037014 1_555
Tb12_7 Te20_7 3.037014 1_555
Tb12_7 Te10_7 3.076761 1_555
Tb12_7 Te14_7 3.086078 1_555
Tb12_7 Te5_7 3.183257 1_555
Tb12_7 Te5_3 3.183257 1_555
Tb13_0 Te21_0 3.037466 1_555
Tb13_0 Te21_4 3.037466 1_455
Tb13_0 Te15_0 3.083365 1_555
Tb13_0 Te11_0 3.123710 1_555
Tb13_0 Te4_4 3.193017 1_455
Tb13_0 Te4_0 3.193017 1_555
Tb13_1 Te21_1 3.037466 1_555
Tb13_1 Te21_5 3.037466 1_455
Tb13_1 Te15_1 3.083365 1_555
Tb13_1 Te11_1 3.123710 1_555
Tb13_1 Te4_5 3.193017 1_455
Tb13_1 Te4_1 3.193017 1_555
Tb13_2 Te21_6 3.037466 1_455
Tb13_2 Te21_2 3.037466 1_555
Tb13_2 Te15_2 3.083365 1_555
Tb13_2 Te11_2 3.123710 1_555
Tb13_2 Te4_6 3.193017 1_455
Tb13_2 Te4_2 3.193017 1_555
Tb13_3 Te21_7 3.037466 1_455
Tb13_3 Te21_3 3.037466 1_555
Tb13_3 Te15_3 3.083365 1_555
Tb13_3 Te11_3 3.123710 1_555
Tb13_3 Te4_7 3.193017 1_455
Tb13_3 Te4_3 3.193017 1_555
Tb13_4 Te21_0 3.037466 1_555
Tb13_4 Te21_4 3.037466 1_555
Tb13_4 Te15_4 3.083365 1_555
Tb13_4 Te11_4 3.123710 1_555
Tb13_4 Te4_0 3.193017 1_555
Tb13_4 Te4_4 3.193017 1_555
Tb13_5 Te21_1 3.037466 1_555
Tb13_5 Te21_5 3.037466 1_555
Tb13_5 Te15_5 3.083365 1_555
Tb13_5 Te11_5 3.123710 1_555
Tb13_5 Te4_1 3.193017 1_555
Tb13_5 Te4_5 3.193017 1_555
Tb13_6 Te21_6 3.037466 1_555
Tb13_6 Te21_2 3.037466 1_555
Tb13_6 Te15_6 3.083365 1_555
Tb13_6 Te11_6 3.123710 1_555
Tb13_6 Te4_6 3.193017 1_555
Tb13_6 Te4_2 3.193017 1_555
Tb13_7 Te21_7 3.037466 1_555
Tb13_7 Te21_3 3.037466 1_555
Tb13_7 Te15_7 3.083365 1_555
Tb13_7 Te11_7 3.123710 1_555
Tb13_7 Te4_3 3.193017 1_555
Tb13_7 Te4_7 3.193017 1_555
Te12_0 Te22_0 4.156649 1_555
Te12_0 Te22_4 4.156649 1_555
Te12_1 Te22_1 4.156649 1_555
Te12_1 Te22_5 4.156649 1_555
Te12_2 Te22_2 4.156649 1_555
Te12_2 Te22_6 4.156649 1_555
Te12_3 Te22_3 4.156649 1_555
Te12_3 Te22_7 4.156649 1_555
Te12_4 Te22_4 4.156649 1_555
Te12_4 Te22_0 4.156649 1_655
Te12_5 Te22_5 4.156649 1_555
Te12_5 Te22_1 4.156649 1_655
Te12_6 Te22_6 4.156649 1_555
Te12_6 Te22_2 4.156649 1_655
Te12_7 Te22_3 4.156649 1_655
Te12_7 Te22_7 4.156649 1_555
Te13_0 Te23_4 4.129891 1_555
Te13_0 Te23_0 4.129891 1_555
Te13_1 Te23_1 4.129891 1_555
Te13_1 Te23_5 4.129891 1_555
Te13_2 Te23_2 4.129891 1_555
Te13_2 Te23_6 4.129891 1_555
Te13_3 Te23_3 4.129891 1_555
Te13_3 Te23_7 4.129891 1_555
Te13_4 Te23_0 4.129891 1_655
Te13_4 Te23_4 4.129891 1_555
Te13_5 Te23_5 4.129891 1_555
Te13_5 Te23_1 4.129891 1_655
Te13_6 Te23_2 4.129891 1_655
Te13_6 Te23_6 4.129891 1_555
Te13_7 Te23_3 4.129891 1_655
Te13_7 Te23_7 4.129891 1_555
Te14_0 Te20_0 4.129891 1_555
Te14_0 Te20_4 4.129891 1_455
Te14_1 Te20_5 4.129891 1_455
Te14_1 Te20_1 4.129891 1_555
Te14_2 Te20_2 4.129891 1_555
Te14_2 Te20_6 4.129891 1_455
Te14_3 Te20_7 4.129891 1_455
Te14_3 Te20_3 4.129891 1_555
Te14_4 Te20_0 4.129891 1_555
Te14_4 Te20_4 4.129891 1_555
Te14_5 Te20_1 4.129891 1_555
Te14_5 Te20_5 4.129891 1_555
Te14_6 Te20_2 4.129891 1_555
Te14_6 Te20_6 4.129891 1_555
Te14_7 Te20_3 4.129891 1_555
Te14_7 Te20_7 4.129891 1_555
Te15_0 Te21_0 4.156649 1_555
Te15_0 Te21_4 4.156649 1_455
Te15_1 Te21_5 4.156649 1_455
Te15_1 Te21_1 4.156649 1_555
Te15_2 Te21_6 4.156649 1_455
Te15_2 Te21_2 4.156649 1_555
Te15_3 Te21_7 4.156649 1_455
Te15_3 Te21_3 4.156649 1_555
Te15_4 Te21_0 4.156649 1_555
Te15_4 Te21_4 4.156649 1_555
Te15_5 Te21_5 4.156649 1_555
Te15_5 Te21_1 4.156649 1_555
Te15_6 Te21_2 4.156649 1_555
Te15_6 Te21_6 4.156649 1_555
Te15_7 Te21_3 4.156649 1_555
Te15_7 Te21_7 4.156649 1_555
Te20_0 Te7_0 4.268057 1_555
Te20_0 Te7_4 4.268057 1_555
Te20_1 Te7_1 4.268057 1_555
Te20_1 Te7_5 4.268057 1_555
Te20_2 Te7_6 4.268057 1_555
Te20_2 Te7_2 4.268057 1_555
Te20_3 Te7_3 4.268057 1_555
Te20_3 Te7_7 4.268057 1_555
Te20_4 Te7_4 4.268057 1_555
Te20_4 Te7_0 4.268057 1_655
Te20_5 Te7_1 4.268057 1_655
Te20_5 Te7_5 4.268057 1_555
Te20_6 Te7_6 4.268057 1_555
Te20_6 Te7_2 4.268057 1_655
Te20_7 Te7_3 4.268057 1_655
Te20_7 Te7_7 4.268057 1_555
Te21_0 Te6_6 4.286038 1_555
Te21_0 Te6_2 4.286038 1_555
Te21_1 Te6_3 4.286038 1_555
Te21_1 Te6_7 4.286038 1_555
Te21_2 Te6_4 4.286038 1_565
Te21_2 Te6_0 4.286038 1_565
Te21_3 Te6_5 4.286038 1_565
Te21_3 Te6_1 4.286038 1_565
Te21_4 Te6_2 4.286038 1_655
Te21_4 Te6_6 4.286038 1_555
Te21_5 Te6_7 4.286038 1_555
Te21_5 Te6_3 4.286038 1_655
Te21_6 Te6_4 4.286038 1_565
Te21_6 Te6_0 4.286038 1_665
Te21_7 Te6_1 4.286038 1_665
Te21_7 Te6_5 4.286038 1_565
Te22_0 Te5_2 4.286038 1_545
Te22_0 Te5_6 4.286038 1_445
Te22_1 Te5_7 4.286038 1_445
Te22_1 Te5_3 4.286038 1_545
Te22_2 Te5_4 4.286038 1_455
Te22_2 Te5_0 4.286038 1_555
Te22_3 Te5_5 4.286038 1_455
Te22_3 Te5_1 4.286038 1_555
Te22_4 Te5_2 4.286038 1_545
Te22_4 Te5_6 4.286038 1_545
Te22_5 Te5_3 4.286038 1_545
Te22_5 Te5_7 4.286038 1_545
Te22_6 Te5_4 4.286038 1_555
Te22_6 Te5_0 4.286038 1_555
Te22_7 Te5_5 4.286038 1_555
Te22_7 Te5_1 4.286038 1_555
Te23_0 Te4_0 4.268057 1_555
Te23_0 Te4_4 4.268057 1_455
Te23_1 Te4_1 4.268057 1_555
Te23_1 Te4_5 4.268057 1_455
Te23_2 Te4_2 4.268057 1_555
Te23_2 Te4_6 4.268057 1_455
Te23_3 Te4_3 4.268057 1_555
Te23_3 Te4_7 4.268057 1_455
Te23_4 Te4_4 4.268057 1_555
Te23_4 Te4_0 4.268057 1_555
Te23_5 Te4_1 4.268057 1_555
Te23_5 Te4_5 4.268057 1_555
Te23_6 Te4_2 4.268057 1_555
Te23_6 Te4_6 4.268057 1_555
Te23_7 Te4_3 4.268057 1_555
Te23_7 Te4_7 4.268057 1_555
