# generated using pymatgen
data_Cs2CdBi2S5
_symmetry_space_group_name_H-M   'P 1'
_cell_length_a   8.46037400
_cell_length_b   32.18530400
_cell_length_c   37.53952800
_cell_angle_alpha   90.00000000
_cell_angle_beta   90.00000000
_cell_angle_gamma   90.00000000
_symmetry_Int_Tables_number   1
_chemical_formula_structural   Cs2CdBi2S5
_chemical_formula_sum   'Cs64 Cd32 Bi64 S160'
_cell_volume   10222.00255579
_cell_formula_units_Z   32
loop_
 _symmetry_equiv_pos_site_id
 _symmetry_equiv_pos_as_xyz
  1  'x, y, z'
loop_
 _atom_site_type_symbol
 _atom_site_label
 _atom_site_symmetry_multiplicity
 _atom_site_fract_x
 _atom_site_fract_y
 _atom_site_fract_z
 _atom_site_occupancy
  Cs  Cs0_0  1  0.37500000  0.49668300  0.31349050  1
  Cs  Cs0_1  1  0.37500000  0.49668300  0.81349050  1
  Cs  Cs0_2  1  0.37500000  0.99668300  0.31349050  1
  Cs  Cs0_3  1  0.37500000  0.99668300  0.81349050  1
  Cs  Cs0_4  1  0.87500000  0.49668300  0.31349050  1
  Cs  Cs0_5  1  0.87500000  0.49668300  0.81349050  1
  Cs  Cs0_6  1  0.87500000  0.99668300  0.31349050  1
  Cs  Cs0_7  1  0.87500000  0.99668300  0.81349050  1
  Cs  Cs1_0  1  0.37500000  0.26741950  0.19375700  1
  Cs  Cs1_1  1  0.37500000  0.26741950  0.69375700  1
  Cs  Cs1_2  1  0.37500000  0.76741950  0.19375700  1
  Cs  Cs1_3  1  0.37500000  0.76741950  0.69375700  1
  Cs  Cs1_4  1  0.87500000  0.26741950  0.19375700  1
  Cs  Cs1_5  1  0.87500000  0.26741950  0.69375700  1
  Cs  Cs1_6  1  0.87500000  0.76741950  0.19375700  1
  Cs  Cs1_7  1  0.87500000  0.76741950  0.69375700  1
  Cs  Cs2_0  1  0.12500000  0.23258050  0.30624300  1
  Cs  Cs2_1  1  0.12500000  0.23258050  0.80624300  1
  Cs  Cs2_2  1  0.12500000  0.73258050  0.30624300  1
  Cs  Cs2_3  1  0.12500000  0.73258050  0.80624300  1
  Cs  Cs2_4  1  0.62500000  0.23258050  0.30624300  1
  Cs  Cs2_5  1  0.62500000  0.23258050  0.80624300  1
  Cs  Cs2_6  1  0.62500000  0.73258050  0.30624300  1
  Cs  Cs2_7  1  0.62500000  0.73258050  0.80624300  1
  Cs  Cs3_0  1  0.12500000  0.48258050  0.44375700  1
  Cs  Cs3_1  1  0.12500000  0.48258050  0.94375700  1
  Cs  Cs3_2  1  0.12500000  0.98258050  0.44375700  1
  Cs  Cs3_3  1  0.12500000  0.98258050  0.94375700  1
  Cs  Cs3_4  1  0.62500000  0.48258050  0.44375700  1
  Cs  Cs3_5  1  0.62500000  0.48258050  0.94375700  1
  Cs  Cs3_6  1  0.62500000  0.98258050  0.44375700  1
  Cs  Cs3_7  1  0.62500000  0.98258050  0.94375700  1
  Cs  Cs4_0  1  0.12500000  0.00331700  0.18650950  1
  Cs  Cs4_1  1  0.12500000  0.00331700  0.68650950  1
  Cs  Cs4_2  1  0.12500000  0.50331700  0.18650950  1
  Cs  Cs4_3  1  0.12500000  0.50331700  0.68650950  1
  Cs  Cs4_4  1  0.62500000  0.00331700  0.18650950  1
  Cs  Cs4_5  1  0.62500000  0.00331700  0.68650950  1
  Cs  Cs4_6  1  0.62500000  0.50331700  0.18650950  1
  Cs  Cs4_7  1  0.62500000  0.50331700  0.68650950  1
  Cs  Cs5_0  1  0.12500000  0.25331700  0.06349050  1
  Cs  Cs5_1  1  0.12500000  0.25331700  0.56349050  1
  Cs  Cs5_2  1  0.12500000  0.75331700  0.06349050  1
  Cs  Cs5_3  1  0.12500000  0.75331700  0.56349050  1
  Cs  Cs5_4  1  0.62500000  0.25331700  0.06349050  1
  Cs  Cs5_5  1  0.62500000  0.25331700  0.56349050  1
  Cs  Cs5_6  1  0.62500000  0.75331700  0.06349050  1
  Cs  Cs5_7  1  0.62500000  0.75331700  0.56349050  1
  Cs  Cs6_0  1  0.37500000  0.24668300  0.43650950  1
  Cs  Cs6_1  1  0.37500000  0.24668300  0.93650950  1
  Cs  Cs6_2  1  0.37500000  0.74668300  0.43650950  1
  Cs  Cs6_3  1  0.37500000  0.74668300  0.93650950  1
  Cs  Cs6_4  1  0.87500000  0.24668300  0.43650950  1
  Cs  Cs6_5  1  0.87500000  0.24668300  0.93650950  1
  Cs  Cs6_6  1  0.87500000  0.74668300  0.43650950  1
  Cs  Cs6_7  1  0.87500000  0.74668300  0.93650950  1
  Cs  Cs7_0  1  0.37500000  0.01741950  0.05624300  1
  Cs  Cs7_1  1  0.37500000  0.01741950  0.55624300  1
  Cs  Cs7_2  1  0.37500000  0.51741950  0.05624300  1
  Cs  Cs7_3  1  0.37500000  0.51741950  0.55624300  1
  Cs  Cs7_4  1  0.87500000  0.01741950  0.05624300  1
  Cs  Cs7_5  1  0.87500000  0.01741950  0.55624300  1
  Cs  Cs7_6  1  0.87500000  0.51741950  0.05624300  1
  Cs  Cs7_7  1  0.87500000  0.51741950  0.55624300  1
  Cd  Cd0_0  1  0.12500000  0.35574350  0.42722800  1
  Cd  Cd0_1  1  0.12500000  0.35574350  0.92722800  1
  Cd  Cd0_2  1  0.12500000  0.85574350  0.42722800  1
  Cd  Cd0_3  1  0.12500000  0.85574350  0.92722800  1
  Cd  Cd0_4  1  0.62500000  0.35574350  0.42722800  1
  Cd  Cd0_5  1  0.62500000  0.35574350  0.92722800  1
  Cd  Cd0_6  1  0.62500000  0.85574350  0.42722800  1
  Cd  Cd0_7  1  0.62500000  0.85574350  0.92722800  1
  Cd  Cd1_0  1  0.37500000  0.14425650  0.07277200  1
  Cd  Cd1_1  1  0.37500000  0.14425650  0.57277200  1
  Cd  Cd1_2  1  0.37500000  0.64425650  0.07277200  1
  Cd  Cd1_3  1  0.37500000  0.64425650  0.57277200  1
  Cd  Cd1_4  1  0.87500000  0.14425650  0.07277200  1
  Cd  Cd1_5  1  0.87500000  0.14425650  0.57277200  1
  Cd  Cd1_6  1  0.87500000  0.64425650  0.07277200  1
  Cd  Cd1_7  1  0.87500000  0.64425650  0.57277200  1
  Cd  Cd2_0  1  0.37500000  0.39425650  0.17722800  1
  Cd  Cd2_1  1  0.37500000  0.39425650  0.67722800  1
  Cd  Cd2_2  1  0.37500000  0.89425650  0.17722800  1
  Cd  Cd2_3  1  0.37500000  0.89425650  0.67722800  1
  Cd  Cd2_4  1  0.87500000  0.39425650  0.17722800  1
  Cd  Cd2_5  1  0.87500000  0.39425650  0.67722800  1
  Cd  Cd2_6  1  0.87500000  0.89425650  0.17722800  1
  Cd  Cd2_7  1  0.87500000  0.89425650  0.67722800  1
  Cd  Cd3_0  1  0.12500000  0.10574350  0.32277200  1
  Cd  Cd3_1  1  0.12500000  0.10574350  0.82277200  1
  Cd  Cd3_2  1  0.12500000  0.60574350  0.32277200  1
  Cd  Cd3_3  1  0.12500000  0.60574350  0.82277200  1
  Cd  Cd3_4  1  0.62500000  0.10574350  0.32277200  1
  Cd  Cd3_5  1  0.62500000  0.10574350  0.82277200  1
  Cd  Cd3_6  1  0.62500000  0.60574350  0.32277200  1
  Cd  Cd3_7  1  0.62500000  0.60574350  0.82277200  1
  Bi  Bi0_0  1  0.12500000  0.12754000  0.49087100  1
  Bi  Bi0_1  1  0.12500000  0.12754000  0.99087100  1
  Bi  Bi0_2  1  0.12500000  0.62754000  0.49087100  1
  Bi  Bi0_3  1  0.12500000  0.62754000  0.99087100  1
  Bi  Bi0_4  1  0.62500000  0.12754000  0.49087100  1
  Bi  Bi0_5  1  0.62500000  0.12754000  0.99087100  1
  Bi  Bi0_6  1  0.62500000  0.62754000  0.49087100  1
  Bi  Bi0_7  1  0.62500000  0.62754000  0.99087100  1
  Bi  Bi1_0  1  0.37500000  0.10397150  0.40231100  1
  Bi  Bi1_1  1  0.37500000  0.10397150  0.90231100  1
  Bi  Bi1_2  1  0.37500000  0.60397150  0.40231100  1
  Bi  Bi1_3  1  0.37500000  0.60397150  0.90231100  1
  Bi  Bi1_4  1  0.87500000  0.10397150  0.40231100  1
  Bi  Bi1_5  1  0.87500000  0.10397150  0.90231100  1
  Bi  Bi1_6  1  0.87500000  0.60397150  0.40231100  1
  Bi  Bi1_7  1  0.87500000  0.60397150  0.90231100  1
  Bi  Bi2_0  1  0.12500000  0.14602850  0.15231100  1
  Bi  Bi2_1  1  0.12500000  0.14602850  0.65231100  1
  Bi  Bi2_2  1  0.12500000  0.64602850  0.15231100  1
  Bi  Bi2_3  1  0.12500000  0.64602850  0.65231100  1
  Bi  Bi2_4  1  0.62500000  0.14602850  0.15231100  1
  Bi  Bi2_5  1  0.62500000  0.14602850  0.65231100  1
  Bi  Bi2_6  1  0.62500000  0.64602850  0.15231100  1
  Bi  Bi2_7  1  0.62500000  0.64602850  0.65231100  1
  Bi  Bi3_0  1  0.12500000  0.37754000  0.25912900  1
  Bi  Bi3_1  1  0.12500000  0.37754000  0.75912900  1
  Bi  Bi3_2  1  0.12500000  0.87754000  0.25912900  1
  Bi  Bi3_3  1  0.12500000  0.87754000  0.75912900  1
  Bi  Bi3_4  1  0.62500000  0.37754000  0.25912900  1
  Bi  Bi3_5  1  0.62500000  0.37754000  0.75912900  1
  Bi  Bi3_6  1  0.62500000  0.87754000  0.25912900  1
  Bi  Bi3_7  1  0.62500000  0.87754000  0.75912900  1
  Bi  Bi4_0  1  0.37500000  0.12246000  0.24087100  1
  Bi  Bi4_1  1  0.37500000  0.12246000  0.74087100  1
  Bi  Bi4_2  1  0.37500000  0.62246000  0.24087100  1
  Bi  Bi4_3  1  0.37500000  0.62246000  0.74087100  1
  Bi  Bi4_4  1  0.87500000  0.12246000  0.24087100  1
  Bi  Bi4_5  1  0.87500000  0.12246000  0.74087100  1
  Bi  Bi4_6  1  0.87500000  0.62246000  0.24087100  1
  Bi  Bi4_7  1  0.87500000  0.62246000  0.74087100  1
  Bi  Bi5_0  1  0.12500000  0.39602850  0.09768900  1
  Bi  Bi5_1  1  0.12500000  0.39602850  0.59768900  1
  Bi  Bi5_2  1  0.12500000  0.89602850  0.09768900  1
  Bi  Bi5_3  1  0.12500000  0.89602850  0.59768900  1
  Bi  Bi5_4  1  0.62500000  0.39602850  0.09768900  1
  Bi  Bi5_5  1  0.62500000  0.39602850  0.59768900  1
  Bi  Bi5_6  1  0.62500000  0.89602850  0.09768900  1
  Bi  Bi5_7  1  0.62500000  0.89602850  0.59768900  1
  Bi  Bi6_0  1  0.37500000  0.35397150  0.34768900  1
  Bi  Bi6_1  1  0.37500000  0.35397150  0.84768900  1
  Bi  Bi6_2  1  0.37500000  0.85397150  0.34768900  1
  Bi  Bi6_3  1  0.37500000  0.85397150  0.84768900  1
  Bi  Bi6_4  1  0.87500000  0.35397150  0.34768900  1
  Bi  Bi6_5  1  0.87500000  0.35397150  0.84768900  1
  Bi  Bi6_6  1  0.87500000  0.85397150  0.34768900  1
  Bi  Bi6_7  1  0.87500000  0.85397150  0.84768900  1
  Bi  Bi7_0  1  0.37500000  0.37246000  0.00912900  1
  Bi  Bi7_1  1  0.37500000  0.37246000  0.50912900  1
  Bi  Bi7_2  1  0.37500000  0.87246000  0.00912900  1
  Bi  Bi7_3  1  0.37500000  0.87246000  0.50912900  1
  Bi  Bi7_4  1  0.87500000  0.37246000  0.00912900  1
  Bi  Bi7_5  1  0.87500000  0.37246000  0.50912900  1
  Bi  Bi7_6  1  0.87500000  0.87246000  0.00912900  1
  Bi  Bi7_7  1  0.87500000  0.87246000  0.50912900  1
  S  S0_0  1  0.12500000  0.31887050  0.48791300  1
  S  S0_1  1  0.12500000  0.31887050  0.98791300  1
  S  S0_2  1  0.12500000  0.81887050  0.48791300  1
  S  S0_3  1  0.12500000  0.81887050  0.98791300  1
  S  S0_4  1  0.62500000  0.31887050  0.48791300  1
  S  S0_5  1  0.62500000  0.31887050  0.98791300  1
  S  S0_6  1  0.62500000  0.81887050  0.48791300  1
  S  S0_7  1  0.62500000  0.81887050  0.98791300  1
  S  S1_0  1  0.12500000  0.06887050  0.26208700  1
  S  S1_1  1  0.12500000  0.06887050  0.76208700  1
  S  S1_2  1  0.12500000  0.56887050  0.26208700  1
  S  S1_3  1  0.12500000  0.56887050  0.76208700  1
  S  S1_4  1  0.62500000  0.06887050  0.26208700  1
  S  S1_5  1  0.62500000  0.06887050  0.76208700  1
  S  S1_6  1  0.62500000  0.56887050  0.26208700  1
  S  S1_7  1  0.62500000  0.56887050  0.76208700  1
  S  S2_0  1  0.37500000  0.31961900  0.28076600  1
  S  S2_1  1  0.37500000  0.31961900  0.78076600  1
  S  S2_2  1  0.37500000  0.81961900  0.28076600  1
  S  S2_3  1  0.37500000  0.81961900  0.78076600  1
  S  S2_4  1  0.87500000  0.31961900  0.28076600  1
  S  S2_5  1  0.87500000  0.31961900  0.78076600  1
  S  S2_6  1  0.87500000  0.81961900  0.28076600  1
  S  S2_7  1  0.87500000  0.81961900  0.78076600  1
  S  S3_0  1  0.37500000  0.09145300  0.17644700  1
  S  S3_1  1  0.37500000  0.09145300  0.67644700  1
  S  S3_2  1  0.37500000  0.59145300  0.17644700  1
  S  S3_3  1  0.37500000  0.59145300  0.67644700  1
  S  S3_4  1  0.87500000  0.09145300  0.17644700  1
  S  S3_5  1  0.87500000  0.09145300  0.67644700  1
  S  S3_6  1  0.87500000  0.59145300  0.17644700  1
  S  S3_7  1  0.87500000  0.59145300  0.67644700  1
  S  S4_0  1  0.12500000  0.18038100  0.21923400  1
  S  S4_1  1  0.12500000  0.18038100  0.71923400  1
  S  S4_2  1  0.12500000  0.68038100  0.21923400  1
  S  S4_3  1  0.12500000  0.68038100  0.71923400  1
  S  S4_4  1  0.62500000  0.18038100  0.21923400  1
  S  S4_5  1  0.62500000  0.18038100  0.71923400  1
  S  S4_6  1  0.62500000  0.68038100  0.21923400  1
  S  S4_7  1  0.62500000  0.68038100  0.71923400  1
  S  S5_0  1  0.37500000  0.18112950  0.01208700  1
  S  S5_1  1  0.37500000  0.18112950  0.51208700  1
  S  S5_2  1  0.37500000  0.68112950  0.01208700  1
  S  S5_3  1  0.37500000  0.68112950  0.51208700  1
  S  S5_4  1  0.87500000  0.18112950  0.01208700  1
  S  S5_5  1  0.87500000  0.18112950  0.51208700  1
  S  S5_6  1  0.87500000  0.68112950  0.01208700  1
  S  S5_7  1  0.87500000  0.68112950  0.51208700  1
  S  S6_0  1  0.12500000  0.40854700  0.32355300  1
  S  S6_1  1  0.12500000  0.40854700  0.82355300  1
  S  S6_2  1  0.12500000  0.90854700  0.32355300  1
  S  S6_3  1  0.12500000  0.90854700  0.82355300  1
  S  S6_4  1  0.62500000  0.40854700  0.32355300  1
  S  S6_5  1  0.62500000  0.40854700  0.82355300  1
  S  S6_6  1  0.62500000  0.90854700  0.32355300  1
  S  S6_7  1  0.62500000  0.90854700  0.82355300  1
  S  S7_0  1  0.12500000  0.35018050  0.16914100  1
  S  S7_1  1  0.12500000  0.35018050  0.66914100  1
  S  S7_2  1  0.12500000  0.85018050  0.16914100  1
  S  S7_3  1  0.12500000  0.85018050  0.66914100  1
  S  S7_4  1  0.62500000  0.35018050  0.16914100  1
  S  S7_5  1  0.62500000  0.35018050  0.66914100  1
  S  S7_6  1  0.62500000  0.85018050  0.16914100  1
  S  S7_7  1  0.62500000  0.85018050  0.66914100  1
  S  S8_0  1  0.37500000  0.44682950  0.12448400  1
  S  S8_1  1  0.37500000  0.44682950  0.62448400  1
  S  S8_2  1  0.37500000  0.94682950  0.12448400  1
  S  S8_3  1  0.37500000  0.94682950  0.62448400  1
  S  S8_4  1  0.87500000  0.44682950  0.12448400  1
  S  S8_5  1  0.87500000  0.44682950  0.62448400  1
  S  S8_6  1  0.87500000  0.94682950  0.12448400  1
  S  S8_7  1  0.87500000  0.94682950  0.62448400  1
  S  S9_0  1  0.37500000  0.19682950  0.12551600  1
  S  S9_1  1  0.37500000  0.19682950  0.62551600  1
  S  S9_2  1  0.37500000  0.69682950  0.12551600  1
  S  S9_3  1  0.37500000  0.69682950  0.62551600  1
  S  S9_4  1  0.87500000  0.19682950  0.12551600  1
  S  S9_5  1  0.87500000  0.19682950  0.62551600  1
  S  S9_6  1  0.87500000  0.69682950  0.12551600  1
  S  S9_7  1  0.87500000  0.69682950  0.62551600  1
  S  S10_0  1  0.12500000  0.05317050  0.37551600  1
  S  S10_1  1  0.12500000  0.05317050  0.87551600  1
  S  S10_2  1  0.12500000  0.55317050  0.37551600  1
  S  S10_3  1  0.12500000  0.55317050  0.87551600  1
  S  S10_4  1  0.62500000  0.05317050  0.37551600  1
  S  S10_5  1  0.62500000  0.05317050  0.87551600  1
  S  S10_6  1  0.62500000  0.55317050  0.37551600  1
  S  S10_7  1  0.62500000  0.55317050  0.87551600  1
  S  S11_0  1  0.37500000  0.39981950  0.41914100  1
  S  S11_1  1  0.37500000  0.39981950  0.91914100  1
  S  S11_2  1  0.37500000  0.89981950  0.41914100  1
  S  S11_3  1  0.37500000  0.89981950  0.91914100  1
  S  S11_4  1  0.87500000  0.39981950  0.41914100  1
  S  S11_5  1  0.87500000  0.39981950  0.91914100  1
  S  S11_6  1  0.87500000  0.89981950  0.41914100  1
  S  S11_7  1  0.87500000  0.89981950  0.91914100  1
  S  S12_0  1  0.12500000  0.43038100  0.03076600  1
  S  S12_1  1  0.12500000  0.43038100  0.53076600  1
  S  S12_2  1  0.12500000  0.93038100  0.03076600  1
  S  S12_3  1  0.12500000  0.93038100  0.53076600  1
  S  S12_4  1  0.62500000  0.43038100  0.03076600  1
  S  S12_5  1  0.62500000  0.43038100  0.53076600  1
  S  S12_6  1  0.62500000  0.93038100  0.03076600  1
  S  S12_7  1  0.62500000  0.93038100  0.53076600  1
  S  S13_0  1  0.12500000  0.30317050  0.37448400  1
  S  S13_1  1  0.12500000  0.30317050  0.87448400  1
  S  S13_2  1  0.12500000  0.80317050  0.37448400  1
  S  S13_3  1  0.12500000  0.80317050  0.87448400  1
  S  S13_4  1  0.62500000  0.30317050  0.37448400  1
  S  S13_5  1  0.62500000  0.30317050  0.87448400  1
  S  S13_6  1  0.62500000  0.80317050  0.37448400  1
  S  S13_7  1  0.62500000  0.80317050  0.87448400  1
  S  S14_0  1  0.37500000  0.14981950  0.33085900  1
  S  S14_1  1  0.37500000  0.14981950  0.83085900  1
  S  S14_2  1  0.37500000  0.64981950  0.33085900  1
  S  S14_3  1  0.37500000  0.64981950  0.83085900  1
  S  S14_4  1  0.87500000  0.14981950  0.33085900  1
  S  S14_5  1  0.87500000  0.14981950  0.83085900  1
  S  S14_6  1  0.87500000  0.64981950  0.33085900  1
  S  S14_7  1  0.87500000  0.64981950  0.83085900  1
  S  S15_0  1  0.37500000  0.06961900  0.46923400  1
  S  S15_1  1  0.37500000  0.06961900  0.96923400  1
  S  S15_2  1  0.37500000  0.56961900  0.46923400  1
  S  S15_3  1  0.37500000  0.56961900  0.96923400  1
  S  S15_4  1  0.87500000  0.06961900  0.46923400  1
  S  S15_5  1  0.87500000  0.06961900  0.96923400  1
  S  S15_6  1  0.87500000  0.56961900  0.46923400  1
  S  S15_7  1  0.87500000  0.56961900  0.96923400  1
  S  S16_0  1  0.37500000  0.34145300  0.07355300  1
  S  S16_1  1  0.37500000  0.34145300  0.57355300  1
  S  S16_2  1  0.37500000  0.84145300  0.07355300  1
  S  S16_3  1  0.37500000  0.84145300  0.57355300  1
  S  S16_4  1  0.87500000  0.34145300  0.07355300  1
  S  S16_5  1  0.87500000  0.34145300  0.57355300  1
  S  S16_6  1  0.87500000  0.84145300  0.07355300  1
  S  S16_7  1  0.87500000  0.84145300  0.57355300  1
  S  S17_0  1  0.12500000  0.10018050  0.08085900  1
  S  S17_1  1  0.12500000  0.10018050  0.58085900  1
  S  S17_2  1  0.12500000  0.60018050  0.08085900  1
  S  S17_3  1  0.12500000  0.60018050  0.58085900  1
  S  S17_4  1  0.62500000  0.10018050  0.08085900  1
  S  S17_5  1  0.62500000  0.10018050  0.58085900  1
  S  S17_6  1  0.62500000  0.60018050  0.08085900  1
  S  S17_7  1  0.62500000  0.60018050  0.58085900  1
  S  S18_0  1  0.12500000  0.15854700  0.42644700  1
  S  S18_1  1  0.12500000  0.15854700  0.92644700  1
  S  S18_2  1  0.12500000  0.65854700  0.42644700  1
  S  S18_3  1  0.12500000  0.65854700  0.92644700  1
  S  S18_4  1  0.62500000  0.15854700  0.42644700  1
  S  S18_5  1  0.62500000  0.15854700  0.92644700  1
  S  S18_6  1  0.62500000  0.65854700  0.42644700  1
  S  S18_7  1  0.62500000  0.65854700  0.92644700  1
  S  S19_0  1  0.37500000  0.43112950  0.23791300  1
  S  S19_1  1  0.37500000  0.43112950  0.73791300  1
  S  S19_2  1  0.37500000  0.93112950  0.23791300  1
  S  S19_3  1  0.37500000  0.93112950  0.73791300  1
  S  S19_4  1  0.87500000  0.43112950  0.23791300  1
  S  S19_5  1  0.87500000  0.43112950  0.73791300  1
  S  S19_6  1  0.87500000  0.93112950  0.23791300  1
  S  S19_7  1  0.87500000  0.93112950  0.73791300  1
loop_
_geom_bond_atom_site_label_1
_geom_bond_atom_site_label_2
_geom_bond_distance
_geom_bond_site_symmetry_2
Cs0_0 S19_0 3.535660 1_555
Cs0_0 S6_0 3.558523 1_555
Cs0_0 S6_4 3.558523 1_555
Cs0_0 S10_2 3.633246 1_555
Cs0_0 S10_6 3.633246 1_555
Cs0_0 S1_2 3.687180 1_555
Cs0_0 S1_6 3.687180 1_555
Cs0_0 Cs0_4 4.230187 1_555
Cs0_0 Cs0_4 4.230187 1_455
Cs0_1 S19_1 3.535660 1_555
Cs0_1 S6_1 3.558523 1_555
Cs0_1 S6_5 3.558523 1_555
Cs0_1 S10_3 3.633246 1_555
Cs0_1 S10_7 3.633246 1_555
Cs0_1 S1_3 3.687180 1_555
Cs0_1 S1_7 3.687180 1_555
Cs0_1 Cs0_5 4.230187 1_555
Cs0_1 Cs0_5 4.230187 1_455
Cs0_2 S19_2 3.535660 1_555
Cs0_2 S6_2 3.558523 1_555
Cs0_2 S6_6 3.558523 1_555
Cs0_2 S10_0 3.633246 1_565
Cs0_2 S10_4 3.633246 1_565
Cs0_2 S1_0 3.687180 1_565
Cs0_2 S1_4 3.687180 1_565
Cs0_2 Cs0_6 4.230187 1_555
Cs0_2 Cs0_6 4.230187 1_455
Cs0_3 S19_3 3.535660 1_555
Cs0_3 S6_3 3.558523 1_555
Cs0_3 S6_7 3.558523 1_555
Cs0_3 S10_1 3.633246 1_565
Cs0_3 S10_5 3.633246 1_565
Cs0_3 S1_1 3.687180 1_565
Cs0_3 S1_5 3.687180 1_565
Cs0_3 Cs0_7 4.230187 1_555
Cs0_3 Cs0_7 4.230187 1_455
Cs0_4 S19_4 3.535660 1_555
Cs0_4 S6_4 3.558523 1_555
Cs0_4 S6_0 3.558523 1_655
Cs0_4 S10_6 3.633246 1_555
Cs0_4 S10_2 3.633246 1_655
Cs0_4 S1_6 3.687180 1_555
Cs0_4 S1_2 3.687180 1_655
Cs0_5 S19_5 3.535660 1_555
Cs0_5 S6_5 3.558523 1_555
Cs0_5 S6_1 3.558523 1_655
Cs0_5 S10_7 3.633246 1_555
Cs0_5 S10_3 3.633246 1_655
Cs0_5 S1_7 3.687180 1_555
Cs0_5 S1_3 3.687180 1_655
Cs0_6 S19_6 3.535660 1_555
Cs0_6 S6_6 3.558523 1_555
Cs0_6 S6_2 3.558523 1_655
Cs0_6 S10_4 3.633246 1_565
Cs0_6 S10_0 3.633246 1_665
Cs0_6 S1_4 3.687180 1_565
Cs0_6 S1_0 3.687180 1_665
Cs0_7 S19_7 3.535660 1_555
Cs0_7 S6_7 3.558523 1_555
Cs0_7 S6_3 3.558523 1_655
Cs0_7 S10_5 3.633246 1_565
Cs0_7 S10_1 3.633246 1_665
Cs0_7 S1_5 3.687180 1_565
Cs0_7 S1_1 3.687180 1_665
Cs1_0 S9_0 3.424075 1_555
Cs1_0 S7_0 3.524594 1_555
Cs1_0 S7_4 3.524594 1_555
Cs1_0 S4_0 3.638122 1_555
Cs1_0 S4_4 3.638122 1_555
Cs1_0 S2_0 3.673031 1_555
Cs1_0 Cs1_4 4.230187 1_555
Cs1_0 Cs1_4 4.230187 1_455
Cs1_1 S9_1 3.424075 1_555
Cs1_1 S7_1 3.524594 1_555
Cs1_1 S7_5 3.524594 1_555
Cs1_1 S4_1 3.638122 1_555
Cs1_1 S4_5 3.638122 1_555
Cs1_1 S2_1 3.673031 1_555
Cs1_1 Cs1_5 4.230187 1_555
Cs1_1 Cs1_5 4.230187 1_455
Cs1_2 S9_2 3.424075 1_555
Cs1_2 S7_2 3.524594 1_555
Cs1_2 S7_6 3.524594 1_555
Cs1_2 S4_2 3.638122 1_555
Cs1_2 S4_6 3.638122 1_555
Cs1_2 S2_2 3.673031 1_555
Cs1_2 Cs1_6 4.230187 1_555
Cs1_2 Cs1_6 4.230187 1_455
Cs1_3 S9_3 3.424075 1_555
Cs1_3 S7_3 3.524594 1_555
Cs1_3 S7_7 3.524594 1_555
Cs1_3 S4_3 3.638122 1_555
Cs1_3 S4_7 3.638122 1_555
Cs1_3 S2_3 3.673031 1_555
Cs1_3 Cs1_7 4.230187 1_555
Cs1_3 Cs1_7 4.230187 1_455
Cs1_4 S9_4 3.424075 1_555
Cs1_4 S7_4 3.524594 1_555
Cs1_4 S7_0 3.524594 1_655
Cs1_4 S4_4 3.638122 1_555
Cs1_4 S4_0 3.638122 1_655
Cs1_4 S2_4 3.673031 1_555
Cs1_5 S9_5 3.424075 1_555
Cs1_5 S7_5 3.524594 1_555
Cs1_5 S7_1 3.524594 1_655
Cs1_5 S4_5 3.638122 1_555
Cs1_5 S4_1 3.638122 1_655
Cs1_5 S2_5 3.673031 1_555
Cs1_6 S9_6 3.424075 1_555
Cs1_6 S7_6 3.524594 1_555
Cs1_6 S7_2 3.524594 1_655
Cs1_6 S4_6 3.638122 1_555
Cs1_6 S4_2 3.638122 1_655
Cs1_6 S2_6 3.673031 1_555
Cs1_7 S9_7 3.424075 1_555
Cs1_7 S7_7 3.524594 1_555
Cs1_7 S7_3 3.524594 1_655
Cs1_7 S4_7 3.638122 1_555
Cs1_7 S4_3 3.638122 1_655
Cs1_7 S2_7 3.673031 1_555
Cs2_0 S13_0 3.424075 1_555
Cs2_0 S14_0 3.524594 1_555
Cs2_0 S14_4 3.524594 1_455
Cs2_0 S2_0 3.638122 1_555
Cs2_0 S2_4 3.638122 1_455
Cs2_0 S4_0 3.673031 1_555
Cs2_0 Cs2_4 4.230187 1_555
Cs2_0 Cs2_4 4.230187 1_455
Cs2_1 S13_1 3.424075 1_555
Cs2_1 S14_1 3.524594 1_555
Cs2_1 S14_5 3.524594 1_455
Cs2_1 S2_1 3.638122 1_555
Cs2_1 S2_5 3.638122 1_455
Cs2_1 S4_1 3.673031 1_555
Cs2_1 Cs2_5 4.230187 1_555
Cs2_1 Cs2_5 4.230187 1_455
Cs2_2 S13_2 3.424075 1_555
Cs2_2 S14_2 3.524594 1_555
Cs2_2 S14_6 3.524594 1_455
Cs2_2 S2_2 3.638122 1_555
Cs2_2 S2_6 3.638122 1_455
Cs2_2 S4_2 3.673031 1_555
Cs2_2 Cs2_6 4.230187 1_555
Cs2_2 Cs2_6 4.230187 1_455
Cs2_3 S13_3 3.424075 1_555
Cs2_3 S14_3 3.524594 1_555
Cs2_3 S14_7 3.524594 1_455
Cs2_3 S2_3 3.638122 1_555
Cs2_3 S2_7 3.638122 1_455
Cs2_3 S4_3 3.673031 1_555
Cs2_3 Cs2_7 4.230187 1_455
Cs2_3 Cs2_7 4.230187 1_555
Cs2_4 S13_4 3.424075 1_555
Cs2_4 S14_4 3.524594 1_555
Cs2_4 S14_0 3.524594 1_555
Cs2_4 S2_4 3.638122 1_555
Cs2_4 S2_0 3.638122 1_555
Cs2_4 S4_4 3.673031 1_555
Cs2_5 S13_5 3.424075 1_555
Cs2_5 S14_5 3.524594 1_555
Cs2_5 S14_1 3.524594 1_555
Cs2_5 S2_5 3.638122 1_555
Cs2_5 S2_1 3.638122 1_555
Cs2_5 S4_5 3.673031 1_555
Cs2_6 S13_6 3.424075 1_555
Cs2_6 S14_6 3.524594 1_555
Cs2_6 S14_2 3.524594 1_555
Cs2_6 S2_6 3.638122 1_555
Cs2_6 S2_2 3.638122 1_555
Cs2_6 S4_6 3.673031 1_555
Cs2_7 S13_7 3.424075 1_555
Cs2_7 S14_7 3.524594 1_555
Cs2_7 S14_3 3.524594 1_555
Cs2_7 S2_7 3.638122 1_555
Cs2_7 S2_3 3.638122 1_555
Cs2_7 S4_7 3.673031 1_555
Cs3_0 S10_2 3.424075 1_555
Cs3_0 S11_0 3.524594 1_555
Cs3_0 S11_4 3.524594 1_455
Cs3_0 S15_2 3.638122 1_555
Cs3_0 S15_6 3.638122 1_455
Cs3_0 S12_1 3.673031 1_555
Cs3_0 Cs3_4 4.230187 1_455
Cs3_0 Cs3_4 4.230187 1_555
Cs3_1 S10_3 3.424075 1_555
Cs3_1 S11_1 3.524594 1_555
Cs3_1 S11_5 3.524594 1_455
Cs3_1 S15_3 3.638122 1_555
Cs3_1 S15_7 3.638122 1_455
Cs3_1 S12_0 3.673031 1_556
Cs3_1 Cs3_5 4.230187 1_455
Cs3_1 Cs3_5 4.230187 1_555
Cs3_2 S10_0 3.424075 1_565
Cs3_2 S11_2 3.524594 1_555
Cs3_2 S11_6 3.524594 1_455
Cs3_2 S15_0 3.638122 1_565
Cs3_2 S15_4 3.638122 1_465
Cs3_2 S12_3 3.673031 1_555
Cs3_2 Cs3_6 4.230187 1_555
Cs3_2 Cs3_6 4.230187 1_455
Cs3_3 S10_1 3.424075 1_565
Cs3_3 S11_3 3.524594 1_555
Cs3_3 S11_7 3.524594 1_455
Cs3_3 S15_1 3.638122 1_565
Cs3_3 S15_5 3.638122 1_465
Cs3_3 S12_2 3.673031 1_556
Cs3_3 Cs3_7 4.230187 1_555
Cs3_3 Cs3_7 4.230187 1_455
Cs3_4 S10_6 3.424075 1_555
Cs3_4 S11_4 3.524594 1_555
Cs3_4 S11_0 3.524594 1_555
Cs3_4 S15_6 3.638122 1_555
Cs3_4 S15_2 3.638122 1_555
Cs3_4 S12_5 3.673031 1_555
Cs3_5 S10_7 3.424075 1_555
Cs3_5 S11_5 3.524594 1_555
Cs3_5 S11_1 3.524594 1_555
Cs3_5 S15_7 3.638122 1_555
Cs3_5 S15_3 3.638122 1_555
Cs3_5 S12_4 3.673031 1_556
Cs3_6 S10_4 3.424075 1_565
Cs3_6 S11_6 3.524594 1_555
Cs3_6 S11_2 3.524594 1_555
Cs3_6 S15_4 3.638122 1_565
Cs3_6 S15_0 3.638122 1_565
Cs3_6 S12_7 3.673031 1_555
Cs3_7 S10_5 3.424075 1_565
Cs3_7 S11_7 3.524594 1_555
Cs3_7 S11_3 3.524594 1_555
Cs3_7 S15_5 3.638122 1_565
Cs3_7 S15_1 3.638122 1_565
Cs3_7 S12_6 3.673031 1_556
Cs4_0 S1_0 3.535660 1_555
Cs4_0 S3_0 3.558523 1_555
Cs4_0 S3_4 3.558523 1_455
Cs4_0 S8_2 3.633246 1_545
Cs4_0 S8_6 3.633246 1_445
Cs4_0 S19_2 3.687180 1_545
Cs4_0 S19_6 3.687180 1_445
Cs4_0 Cs4_4 4.230187 1_455
Cs4_0 Cs4_4 4.230187 1_555
Cs4_1 S1_1 3.535660 1_555
Cs4_1 S3_1 3.558523 1_555
Cs4_1 S3_5 3.558523 1_455
Cs4_1 S8_3 3.633246 1_545
Cs4_1 S8_7 3.633246 1_445
Cs4_1 S19_3 3.687180 1_545
Cs4_1 S19_7 3.687180 1_445
Cs4_1 Cs4_5 4.230187 1_555
Cs4_1 Cs4_5 4.230187 1_455
Cs4_2 S1_2 3.535660 1_555
Cs4_2 S3_2 3.558523 1_555
Cs4_2 S3_6 3.558523 1_455
Cs4_2 S8_0 3.633246 1_555
Cs4_2 S8_4 3.633246 1_455
Cs4_2 S19_0 3.687180 1_555
Cs4_2 S19_4 3.687180 1_455
Cs4_2 Cs4_6 4.230187 1_555
Cs4_2 Cs4_6 4.230187 1_455
Cs4_3 S1_3 3.535660 1_555
Cs4_3 S3_3 3.558523 1_555
Cs4_3 S3_7 3.558523 1_455
Cs4_3 S8_1 3.633246 1_555
Cs4_3 S8_5 3.633246 1_455
Cs4_3 S19_1 3.687180 1_555
Cs4_3 S19_5 3.687180 1_455
Cs4_3 Cs4_7 4.230187 1_455
Cs4_3 Cs4_7 4.230187 1_555
Cs4_4 S1_4 3.535660 1_555
Cs4_4 S3_4 3.558523 1_555
Cs4_4 S3_0 3.558523 1_555
Cs4_4 S8_6 3.633246 1_545
Cs4_4 S8_2 3.633246 1_545
Cs4_4 S19_6 3.687180 1_545
Cs4_4 S19_2 3.687180 1_545
Cs4_5 S1_5 3.535660 1_555
Cs4_5 S3_5 3.558523 1_555
Cs4_5 S3_1 3.558523 1_555
Cs4_5 S8_7 3.633246 1_545
Cs4_5 S8_3 3.633246 1_545
Cs4_5 S19_7 3.687180 1_545
Cs4_5 S19_3 3.687180 1_545
Cs4_6 S1_6 3.535660 1_555
Cs4_6 S3_6 3.558523 1_555
Cs4_6 S3_2 3.558523 1_555
Cs4_6 S8_4 3.633246 1_555
Cs4_6 S8_0 3.633246 1_555
Cs4_6 S19_4 3.687180 1_555
Cs4_6 S19_0 3.687180 1_555
Cs4_7 S1_7 3.535660 1_555
Cs4_7 S3_7 3.558523 1_555
Cs4_7 S3_3 3.558523 1_555
Cs4_7 S8_5 3.633246 1_555
Cs4_7 S8_1 3.633246 1_555
Cs4_7 S19_5 3.687180 1_555
Cs4_7 S19_1 3.687180 1_555
Cs5_0 S0_1 3.535660 1_554
Cs5_0 S16_0 3.558523 1_555
Cs5_0 S16_4 3.558523 1_455
Cs5_0 S9_0 3.633246 1_555
Cs5_0 S9_4 3.633246 1_455
Cs5_0 S5_0 3.687180 1_555
Cs5_0 S5_4 3.687180 1_455
Cs5_0 Cs5_4 4.230187 1_555
Cs5_0 Cs5_4 4.230187 1_455
Cs5_1 S0_0 3.535660 1_555
Cs5_1 S16_1 3.558523 1_555
Cs5_1 S16_5 3.558523 1_455
Cs5_1 S9_1 3.633246 1_555
Cs5_1 S9_5 3.633246 1_455
Cs5_1 S5_1 3.687180 1_555
Cs5_1 S5_5 3.687180 1_455
Cs5_1 Cs5_5 4.230187 1_455
Cs5_1 Cs5_5 4.230187 1_555
Cs5_2 S0_3 3.535660 1_554
Cs5_2 S16_2 3.558523 1_555
Cs5_2 S16_6 3.558523 1_455
Cs5_2 S9_2 3.633246 1_555
Cs5_2 S9_6 3.633246 1_455
Cs5_2 S5_2 3.687180 1_555
Cs5_2 S5_6 3.687180 1_455
Cs5_2 Cs5_6 4.230187 1_455
Cs5_2 Cs5_6 4.230187 1_555
Cs5_3 S0_2 3.535660 1_555
Cs5_3 S16_3 3.558523 1_555
Cs5_3 S16_7 3.558523 1_455
Cs5_3 S9_3 3.633246 1_555
Cs5_3 S9_7 3.633246 1_455
Cs5_3 S5_3 3.687180 1_555
Cs5_3 S5_7 3.687180 1_455
Cs5_3 Cs5_7 4.230187 1_555
Cs5_3 Cs5_7 4.230187 1_455
Cs5_4 S0_5 3.535660 1_554
Cs5_4 S16_4 3.558523 1_555
Cs5_4 S16_0 3.558523 1_555
Cs5_4 S9_4 3.633246 1_555
Cs5_4 S9_0 3.633246 1_555
Cs5_4 S5_4 3.687180 1_555
Cs5_4 S5_0 3.687180 1_555
Cs5_5 S0_4 3.535660 1_555
Cs5_5 S16_5 3.558523 1_555
Cs5_5 S16_1 3.558523 1_555
Cs5_5 S9_5 3.633246 1_555
Cs5_5 S9_1 3.633246 1_555
Cs5_5 S5_5 3.687180 1_555
Cs5_5 S5_1 3.687180 1_555
Cs5_6 S0_7 3.535660 1_554
Cs5_6 S16_6 3.558523 1_555
Cs5_6 S16_2 3.558523 1_555
Cs5_6 S9_6 3.633246 1_555
Cs5_6 S9_2 3.633246 1_555
Cs5_6 S5_6 3.687180 1_555
Cs5_6 S5_2 3.687180 1_555
Cs5_7 S0_6 3.535660 1_555
Cs5_7 S16_7 3.558523 1_555
Cs5_7 S16_3 3.558523 1_555
Cs5_7 S9_7 3.633246 1_555
Cs5_7 S9_3 3.633246 1_555
Cs5_7 S5_7 3.687180 1_555
Cs5_7 S5_3 3.687180 1_555
Cs6_0 S5_1 3.535660 1_555
Cs6_0 S18_0 3.558523 1_555
Cs6_0 S18_4 3.558523 1_555
Cs6_0 S13_0 3.633246 1_555
Cs6_0 S13_4 3.633246 1_555
Cs6_0 S0_0 3.687180 1_555
Cs6_0 S0_4 3.687180 1_555
Cs6_0 Cs6_4 4.230187 1_555
Cs6_0 Cs6_4 4.230187 1_455
Cs6_1 S5_0 3.535660 1_556
Cs6_1 S18_1 3.558523 1_555
Cs6_1 S18_5 3.558523 1_555
Cs6_1 S13_1 3.633246 1_555
Cs6_1 S13_5 3.633246 1_555
Cs6_1 S0_1 3.687180 1_555
Cs6_1 S0_5 3.687180 1_555
Cs6_1 Cs6_5 4.230187 1_555
Cs6_1 Cs6_5 4.230187 1_455
Cs6_2 S5_3 3.535660 1_555
Cs6_2 S18_2 3.558523 1_555
Cs6_2 S18_6 3.558523 1_555
Cs6_2 S13_2 3.633246 1_555
Cs6_2 S13_6 3.633246 1_555
Cs6_2 S0_2 3.687180 1_555
Cs6_2 S0_6 3.687180 1_555
Cs6_2 Cs6_6 4.230187 1_555
Cs6_2 Cs6_6 4.230187 1_455
Cs6_3 S5_2 3.535660 1_556
Cs6_3 S18_3 3.558523 1_555
Cs6_3 S18_7 3.558523 1_555
Cs6_3 S13_3 3.633246 1_555
Cs6_3 S13_7 3.633246 1_555
Cs6_3 S0_3 3.687180 1_555
Cs6_3 S0_7 3.687180 1_555
Cs6_3 Cs6_7 4.230187 1_555
Cs6_3 Cs6_7 4.230187 1_455
Cs6_4 S5_5 3.535660 1_555
Cs6_4 S18_4 3.558523 1_555
Cs6_4 S18_0 3.558523 1_655
Cs6_4 S13_4 3.633246 1_555
Cs6_4 S13_0 3.633246 1_655
Cs6_4 S0_4 3.687180 1_555
Cs6_4 S0_0 3.687180 1_655
Cs6_5 S5_4 3.535660 1_556
Cs6_5 S18_5 3.558523 1_555
Cs6_5 S18_1 3.558523 1_655
Cs6_5 S13_5 3.633246 1_555
Cs6_5 S13_1 3.633246 1_655
Cs6_5 S0_5 3.687180 1_555
Cs6_5 S0_1 3.687180 1_655
Cs6_6 S5_7 3.535660 1_555
Cs6_6 S18_6 3.558523 1_555
Cs6_6 S18_2 3.558523 1_655
Cs6_6 S13_6 3.633246 1_555
Cs6_6 S13_2 3.633246 1_655
Cs6_6 S0_6 3.687180 1_555
Cs6_6 S0_2 3.687180 1_655
Cs6_7 S5_6 3.535660 1_556
Cs6_7 S18_7 3.558523 1_555
Cs6_7 S18_3 3.558523 1_655
Cs6_7 S13_7 3.633246 1_555
Cs6_7 S13_3 3.633246 1_655
Cs6_7 S0_7 3.687180 1_555
Cs6_7 S0_3 3.687180 1_655
Cs7_0 S8_2 3.424075 1_545
Cs7_0 S17_0 3.524594 1_555
Cs7_0 S17_4 3.524594 1_555
Cs7_0 S12_2 3.638122 1_545
Cs7_0 S12_6 3.638122 1_545
Cs7_0 S15_1 3.673031 1_554
Cs7_0 Cs7_4 4.230187 1_555
Cs7_0 Cs7_4 4.230187 1_455
Cs7_1 S8_3 3.424075 1_545
Cs7_1 S17_1 3.524594 1_555
Cs7_1 S17_5 3.524594 1_555
Cs7_1 S12_3 3.638122 1_545
Cs7_1 S12_7 3.638122 1_545
Cs7_1 S15_0 3.673031 1_555
Cs7_1 Cs7_5 4.230187 1_555
Cs7_1 Cs7_5 4.230187 1_455
Cs7_2 S8_0 3.424075 1_555
Cs7_2 S17_2 3.524594 1_555
Cs7_2 S17_6 3.524594 1_555
Cs7_2 S12_0 3.638122 1_555
Cs7_2 S12_4 3.638122 1_555
Cs7_2 S15_3 3.673031 1_554
Cs7_2 Cs7_6 4.230187 1_555
Cs7_2 Cs7_6 4.230187 1_455
Cs7_3 S8_1 3.424075 1_555
Cs7_3 S17_3 3.524594 1_555
Cs7_3 S17_7 3.524594 1_555
Cs7_3 S12_1 3.638122 1_555
Cs7_3 S12_5 3.638122 1_555
Cs7_3 S15_2 3.673031 1_555
Cs7_3 Cs7_7 4.230187 1_555
Cs7_3 Cs7_7 4.230187 1_455
Cs7_4 S8_6 3.424075 1_545
Cs7_4 S17_4 3.524594 1_555
Cs7_4 S17_0 3.524594 1_655
Cs7_4 S12_6 3.638122 1_545
Cs7_4 S12_2 3.638122 1_645
Cs7_4 S15_5 3.673031 1_554
Cs7_5 S8_7 3.424075 1_545
Cs7_5 S17_5 3.524594 1_555
Cs7_5 S17_1 3.524594 1_655
Cs7_5 S12_7 3.638122 1_545
Cs7_5 S12_3 3.638122 1_645
Cs7_5 S15_4 3.673031 1_555
Cs7_6 S8_4 3.424075 1_555
Cs7_6 S17_6 3.524594 1_555
Cs7_6 S17_2 3.524594 1_655
Cs7_6 S12_4 3.638122 1_555
Cs7_6 S12_0 3.638122 1_655
Cs7_6 S15_7 3.673031 1_554
Cs7_7 S8_5 3.424075 1_555
Cs7_7 S17_7 3.524594 1_555
Cs7_7 S17_3 3.524594 1_655
Cs7_7 S12_5 3.638122 1_555
Cs7_7 S12_1 3.638122 1_655
Cs7_7 S15_6 3.673031 1_555
Cd0_0 S11_0 2.564802 1_555
Cd0_0 S11_4 2.564802 1_455
Cd0_0 S0_0 2.568676 1_555
Cd0_0 S13_0 2.604509 1_555
Cd0_1 S11_1 2.564802 1_555
Cd0_1 S11_5 2.564802 1_455
Cd0_1 S0_1 2.568676 1_555
Cd0_1 S13_1 2.604509 1_555
Cd0_2 S11_2 2.564802 1_555
Cd0_2 S11_6 2.564802 1_455
Cd0_2 S0_2 2.568676 1_555
Cd0_2 S13_2 2.604509 1_555
Cd0_3 S11_3 2.564802 1_555
Cd0_3 S11_7 2.564802 1_455
Cd0_3 S0_3 2.568676 1_555
Cd0_3 S13_3 2.604509 1_555
Cd0_4 S11_4 2.564802 1_555
Cd0_4 S11_0 2.564802 1_555
Cd0_4 S0_4 2.568676 1_555
Cd0_4 S13_4 2.604509 1_555
Cd0_5 S11_5 2.564802 1_555
Cd0_5 S11_1 2.564802 1_555
Cd0_5 S0_5 2.568676 1_555
Cd0_5 S13_5 2.604509 1_555
Cd0_6 S11_6 2.564802 1_555
Cd0_6 S11_2 2.564802 1_555
Cd0_6 S0_6 2.568676 1_555
Cd0_6 S13_6 2.604509 1_555
Cd0_7 S11_7 2.564802 1_555
Cd0_7 S11_3 2.564802 1_555
Cd0_7 S0_7 2.568676 1_555
Cd0_7 S13_7 2.604509 1_555
Cd1_0 S17_0 2.564802 1_555
Cd1_0 S17_4 2.564802 1_555
Cd1_0 S5_0 2.568676 1_555
Cd1_0 S9_0 2.604509 1_555
Cd1_1 S17_1 2.564802 1_555
Cd1_1 S17_5 2.564802 1_555
Cd1_1 S5_1 2.568676 1_555
Cd1_1 S9_1 2.604509 1_555
Cd1_2 S17_2 2.564802 1_555
Cd1_2 S17_6 2.564802 1_555
Cd1_2 S5_2 2.568676 1_555
Cd1_2 S9_2 2.604509 1_555
Cd1_3 S17_3 2.564802 1_555
Cd1_3 S17_7 2.564802 1_555
Cd1_3 S5_3 2.568676 1_555
Cd1_3 S9_3 2.604509 1_555
Cd1_4 S17_4 2.564802 1_555
Cd1_4 S17_0 2.564802 1_655
Cd1_4 S5_4 2.568676 1_555
Cd1_4 S9_4 2.604509 1_555
Cd1_5 S17_5 2.564802 1_555
Cd1_5 S17_1 2.564802 1_655
Cd1_5 S5_5 2.568676 1_555
Cd1_5 S9_5 2.604509 1_555
Cd1_6 S17_6 2.564802 1_555
Cd1_6 S17_2 2.564802 1_655
Cd1_6 S5_6 2.568676 1_555
Cd1_6 S9_6 2.604509 1_555
Cd1_7 S17_7 2.564802 1_555
Cd1_7 S17_3 2.564802 1_655
Cd1_7 S5_7 2.568676 1_555
Cd1_7 S9_7 2.604509 1_555
Cd2_0 S7_0 2.564802 1_555
Cd2_0 S7_4 2.564802 1_555
Cd2_0 S19_0 2.568676 1_555
Cd2_0 S8_0 2.604509 1_555
Cd2_1 S7_1 2.564802 1_555
Cd2_1 S7_5 2.564802 1_555
Cd2_1 S19_1 2.568676 1_555
Cd2_1 S8_1 2.604509 1_555
Cd2_2 S7_2 2.564802 1_555
Cd2_2 S7_6 2.564802 1_555
Cd2_2 S19_2 2.568676 1_555
Cd2_2 S8_2 2.604509 1_555
Cd2_3 S7_3 2.564802 1_555
Cd2_3 S7_7 2.564802 1_555
Cd2_3 S19_3 2.568676 1_555
Cd2_3 S8_3 2.604509 1_555
Cd2_4 S7_4 2.564802 1_555
Cd2_4 S7_0 2.564802 1_655
Cd2_4 S19_4 2.568676 1_555
Cd2_4 S8_4 2.604509 1_555
Cd2_5 S7_5 2.564802 1_555
Cd2_5 S7_1 2.564802 1_655
Cd2_5 S19_5 2.568676 1_555
Cd2_5 S8_5 2.604509 1_555
Cd2_6 S7_6 2.564802 1_555
Cd2_6 S7_2 2.564802 1_655
Cd2_6 S19_6 2.568676 1_555
Cd2_6 S8_6 2.604509 1_555
Cd2_7 S7_7 2.564802 1_555
Cd2_7 S7_3 2.564802 1_655
Cd2_7 S19_7 2.568676 1_555
Cd2_7 S8_7 2.604509 1_555
Cd3_0 S14_0 2.564802 1_555
Cd3_0 S14_4 2.564802 1_455
Cd3_0 S1_0 2.568676 1_555
Cd3_0 S10_0 2.604509 1_555
Cd3_1 S14_1 2.564802 1_555
Cd3_1 S14_5 2.564802 1_455
Cd3_1 S1_1 2.568676 1_555
Cd3_1 S10_1 2.604509 1_555
Cd3_2 S14_2 2.564802 1_555
Cd3_2 S14_6 2.564802 1_455
Cd3_2 S1_2 2.568676 1_555
Cd3_2 S10_2 2.604509 1_555
Cd3_3 S14_3 2.564802 1_555
Cd3_3 S14_7 2.564802 1_455
Cd3_3 S1_3 2.568676 1_555
Cd3_3 S10_3 2.604509 1_555
Cd3_4 S14_4 2.564802 1_555
Cd3_4 S14_0 2.564802 1_555
Cd3_4 S1_4 2.568676 1_555
Cd3_4 S10_4 2.604509 1_555
Cd3_5 S14_5 2.564802 1_555
Cd3_5 S14_1 2.564802 1_555
Cd3_5 S1_5 2.568676 1_555
Cd3_5 S10_5 2.604509 1_555
Cd3_6 S14_6 2.564802 1_555
Cd3_6 S14_2 2.564802 1_555
Cd3_6 S1_6 2.568676 1_555
Cd3_6 S10_6 2.604509 1_555
Cd3_7 S14_7 2.564802 1_555
Cd3_7 S14_3 2.564802 1_555
Cd3_7 S1_7 2.568676 1_555
Cd3_7 S10_7 2.604509 1_555
Bi0_0 S18_0 2.616262 1_555
Bi0_0 S5_1 2.843035 1_555
Bi0_0 S5_5 2.843035 1_455
Bi0_0 S15_0 2.934045 1_555
Bi0_0 S15_4 2.934045 1_455
Bi0_0 S17_1 3.490991 1_555
Bi0_1 S18_1 2.616262 1_555
Bi0_1 S5_0 2.843035 1_556
Bi0_1 S5_4 2.843035 1_456
Bi0_1 S15_1 2.934045 1_555
Bi0_1 S15_5 2.934045 1_455
Bi0_1 S17_0 3.490991 1_556
Bi0_2 S18_2 2.616262 1_555
Bi0_2 S5_3 2.843035 1_555
Bi0_2 S5_7 2.843035 1_455
Bi0_2 S15_2 2.934045 1_555
Bi0_2 S15_6 2.934045 1_455
Bi0_2 S17_3 3.490991 1_555
Bi0_3 S18_3 2.616262 1_555
Bi0_3 S5_2 2.843035 1_556
Bi0_3 S5_6 2.843035 1_456
Bi0_3 S15_3 2.934045 1_555
Bi0_3 S15_7 2.934045 1_455
Bi0_3 S17_2 3.490991 1_556
Bi0_4 S18_4 2.616262 1_555
Bi0_4 S5_5 2.843035 1_555
Bi0_4 S5_1 2.843035 1_555
Bi0_4 S15_4 2.934045 1_555
Bi0_4 S15_0 2.934045 1_555
Bi0_4 S17_5 3.490991 1_555
Bi0_5 S18_5 2.616262 1_555
Bi0_5 S5_4 2.843035 1_556
Bi0_5 S5_0 2.843035 1_556
Bi0_5 S15_5 2.934045 1_555
Bi0_5 S15_1 2.934045 1_555
Bi0_5 S17_4 3.490991 1_556
Bi0_6 S18_6 2.616262 1_555
Bi0_6 S5_7 2.843035 1_555
Bi0_6 S5_3 2.843035 1_555
Bi0_6 S15_6 2.934045 1_555
Bi0_6 S15_2 2.934045 1_555
Bi0_6 S17_7 3.490991 1_555
Bi0_7 S18_7 2.616262 1_555
Bi0_7 S5_6 2.843035 1_556
Bi0_7 S5_2 2.843035 1_556
Bi0_7 S15_7 2.934045 1_555
Bi0_7 S15_3 2.934045 1_555
Bi0_7 S17_6 3.490991 1_556
Bi1_0 S15_0 2.744794 1_555
Bi1_0 S10_0 2.856357 1_555
Bi1_0 S10_4 2.856357 1_555
Bi1_0 S18_0 2.894814 1_555
Bi1_0 S18_4 2.894814 1_555
Bi1_0 S14_0 3.061386 1_555
Bi1_1 S15_1 2.744794 1_555
Bi1_1 S10_1 2.856357 1_555
Bi1_1 S10_5 2.856357 1_555
Bi1_1 S18_1 2.894814 1_555
Bi1_1 S18_5 2.894814 1_555
Bi1_1 S14_1 3.061386 1_555
Bi1_2 S15_2 2.744794 1_555
Bi1_2 S10_2 2.856357 1_555
Bi1_2 S10_6 2.856357 1_555
Bi1_2 S18_2 2.894814 1_555
Bi1_2 S18_6 2.894814 1_555
Bi1_2 S14_2 3.061386 1_555
Bi1_3 S15_3 2.744794 1_555
Bi1_3 S10_3 2.856357 1_555
Bi1_3 S10_7 2.856357 1_555
Bi1_3 S18_3 2.894814 1_555
Bi1_3 S18_7 2.894814 1_555
Bi1_3 S14_3 3.061386 1_555
Bi1_4 S15_4 2.744794 1_555
Bi1_4 S10_4 2.856357 1_555
Bi1_4 S10_0 2.856357 1_655
Bi1_4 S18_4 2.894814 1_555
Bi1_4 S18_0 2.894814 1_655
Bi1_4 S14_4 3.061386 1_555
Bi1_5 S15_5 2.744794 1_555
Bi1_5 S10_5 2.856357 1_555
Bi1_5 S10_1 2.856357 1_655
Bi1_5 S18_5 2.894814 1_555
Bi1_5 S18_1 2.894814 1_655
Bi1_5 S14_5 3.061386 1_555
Bi1_6 S15_6 2.744794 1_555
Bi1_6 S10_6 2.856357 1_555
Bi1_6 S10_2 2.856357 1_655
Bi1_6 S18_6 2.894814 1_555
Bi1_6 S18_2 2.894814 1_655
Bi1_6 S14_6 3.061386 1_555
Bi1_7 S15_7 2.744794 1_555
Bi1_7 S10_7 2.856357 1_555
Bi1_7 S10_3 2.856357 1_655
Bi1_7 S18_7 2.894814 1_555
Bi1_7 S18_3 2.894814 1_655
Bi1_7 S14_7 3.061386 1_555
Bi2_0 S4_0 2.744794 1_555
Bi2_0 S9_0 2.856357 1_555
Bi2_0 S9_4 2.856357 1_455
Bi2_0 S3_0 2.894814 1_555
Bi2_0 S3_4 2.894814 1_455
Bi2_0 S17_0 3.061386 1_555
Bi2_1 S4_1 2.744794 1_555
Bi2_1 S9_1 2.856357 1_555
Bi2_1 S9_5 2.856357 1_455
Bi2_1 S3_1 2.894814 1_555
Bi2_1 S3_5 2.894814 1_455
Bi2_1 S17_1 3.061386 1_555
Bi2_2 S4_2 2.744794 1_555
Bi2_2 S9_2 2.856357 1_555
Bi2_2 S9_6 2.856357 1_455
Bi2_2 S3_2 2.894814 1_555
Bi2_2 S3_6 2.894814 1_455
Bi2_2 S17_2 3.061386 1_555
Bi2_3 S4_3 2.744794 1_555
Bi2_3 S9_3 2.856357 1_555
Bi2_3 S9_7 2.856357 1_455
Bi2_3 S3_3 2.894814 1_555
Bi2_3 S3_7 2.894814 1_455
Bi2_3 S17_3 3.061386 1_555
Bi2_4 S4_4 2.744794 1_555
Bi2_4 S9_4 2.856357 1_555
Bi2_4 S9_0 2.856357 1_555
Bi2_4 S3_4 2.894814 1_555
Bi2_4 S3_0 2.894814 1_555
Bi2_4 S17_4 3.061386 1_555
Bi2_5 S4_5 2.744794 1_555
Bi2_5 S9_5 2.856357 1_555
Bi2_5 S9_1 2.856357 1_555
Bi2_5 S3_5 2.894814 1_555
Bi2_5 S3_1 2.894814 1_555
Bi2_5 S17_5 3.061386 1_555
Bi2_6 S4_6 2.744794 1_555
Bi2_6 S9_6 2.856357 1_555
Bi2_6 S9_2 2.856357 1_555
Bi2_6 S3_6 2.894814 1_555
Bi2_6 S3_2 2.894814 1_555
Bi2_6 S17_6 3.061386 1_555
Bi2_7 S4_7 2.744794 1_555
Bi2_7 S9_7 2.856357 1_555
Bi2_7 S9_3 2.856357 1_555
Bi2_7 S3_7 2.894814 1_555
Bi2_7 S3_3 2.894814 1_555
Bi2_7 S17_7 3.061386 1_555
Bi3_0 S6_0 2.616262 1_555
Bi3_0 S19_0 2.843035 1_555
Bi3_0 S19_4 2.843035 1_455
Bi3_0 S2_0 2.934045 1_555
Bi3_0 S2_4 2.934045 1_455
Bi3_0 S7_0 3.490991 1_555
Bi3_1 S6_1 2.616262 1_555
Bi3_1 S19_1 2.843035 1_555
Bi3_1 S19_5 2.843035 1_455
Bi3_1 S2_1 2.934045 1_555
Bi3_1 S2_5 2.934045 1_455
Bi3_1 S7_1 3.490991 1_555
Bi3_2 S6_2 2.616262 1_555
Bi3_2 S19_2 2.843035 1_555
Bi3_2 S19_6 2.843035 1_455
Bi3_2 S2_2 2.934045 1_555
Bi3_2 S2_6 2.934045 1_455
Bi3_2 S7_2 3.490991 1_555
Bi3_3 S6_3 2.616262 1_555
Bi3_3 S19_3 2.843035 1_555
Bi3_3 S19_7 2.843035 1_455
Bi3_3 S2_3 2.934045 1_555
Bi3_3 S2_7 2.934045 1_455
Bi3_3 S7_3 3.490991 1_555
Bi3_4 S6_4 2.616262 1_555
Bi3_4 S19_4 2.843035 1_555
Bi3_4 S19_0 2.843035 1_555
Bi3_4 S2_4 2.934045 1_555
Bi3_4 S2_0 2.934045 1_555
Bi3_4 S7_4 3.490991 1_555
Bi3_5 S6_5 2.616262 1_555
Bi3_5 S19_5 2.843035 1_555
Bi3_5 S19_1 2.843035 1_555
Bi3_5 S2_5 2.934045 1_555
Bi3_5 S2_1 2.934045 1_555
Bi3_5 S7_5 3.490991 1_555
Bi3_6 S6_6 2.616262 1_555
Bi3_6 S19_6 2.843035 1_555
Bi3_6 S19_2 2.843035 1_555
Bi3_6 S2_6 2.934045 1_555
Bi3_6 S2_2 2.934045 1_555
Bi3_6 S7_6 3.490991 1_555
Bi3_7 S6_7 2.616262 1_555
Bi3_7 S19_7 2.843035 1_555
Bi3_7 S19_3 2.843035 1_555
Bi3_7 S2_7 2.934045 1_555
Bi3_7 S2_3 2.934045 1_555
Bi3_7 S7_7 3.490991 1_555
Bi4_0 S3_0 2.616262 1_555
Bi4_0 S1_0 2.843035 1_555
Bi4_0 S1_4 2.843035 1_555
Bi4_0 S4_0 2.934045 1_555
Bi4_0 S4_4 2.934045 1_555
Bi4_0 S14_0 3.490991 1_555
Bi4_1 S3_1 2.616262 1_555
Bi4_1 S1_1 2.843035 1_555
Bi4_1 S1_5 2.843035 1_555
Bi4_1 S4_1 2.934045 1_555
Bi4_1 S4_5 2.934045 1_555
Bi4_1 S14_1 3.490991 1_555
Bi4_2 S3_2 2.616262 1_555
Bi4_2 S1_2 2.843035 1_555
Bi4_2 S1_6 2.843035 1_555
Bi4_2 S4_2 2.934045 1_555
Bi4_2 S4_6 2.934045 1_555
Bi4_2 S14_2 3.490991 1_555
Bi4_3 S3_3 2.616262 1_555
Bi4_3 S1_3 2.843035 1_555
Bi4_3 S1_7 2.843035 1_555
Bi4_3 S4_3 2.934045 1_555
Bi4_3 S4_7 2.934045 1_555
Bi4_3 S14_3 3.490991 1_555
Bi4_4 S3_4 2.616262 1_555
Bi4_4 S1_4 2.843035 1_555
Bi4_4 S1_0 2.843035 1_655
Bi4_4 S4_4 2.934045 1_555
Bi4_4 S4_0 2.934045 1_655
Bi4_4 S14_4 3.490991 1_555
Bi4_5 S3_5 2.616262 1_555
Bi4_5 S1_5 2.843035 1_555
Bi4_5 S1_1 2.843035 1_655
Bi4_5 S4_5 2.934045 1_555
Bi4_5 S4_1 2.934045 1_655
Bi4_5 S14_5 3.490991 1_555
Bi4_6 S3_6 2.616262 1_555
Bi4_6 S1_6 2.843035 1_555
Bi4_6 S1_2 2.843035 1_655
Bi4_6 S4_6 2.934045 1_555
Bi4_6 S4_2 2.934045 1_655
Bi4_6 S14_6 3.490991 1_555
Bi4_7 S3_7 2.616262 1_555
Bi4_7 S1_7 2.843035 1_555
Bi4_7 S1_3 2.843035 1_655
Bi4_7 S4_7 2.934045 1_555
Bi4_7 S4_3 2.934045 1_655
Bi4_7 S14_7 3.490991 1_555
Bi5_0 S12_0 2.744794 1_555
Bi5_0 S8_0 2.856357 1_555
Bi5_0 S8_4 2.856357 1_455
Bi5_0 S16_0 2.894814 1_555
Bi5_0 S16_4 2.894814 1_455
Bi5_0 S7_0 3.061386 1_555
Bi5_1 S12_1 2.744794 1_555
Bi5_1 S8_1 2.856357 1_555
Bi5_1 S8_5 2.856357 1_455
Bi5_1 S16_1 2.894814 1_555
Bi5_1 S16_5 2.894814 1_455
Bi5_1 S7_1 3.061386 1_555
Bi5_2 S12_2 2.744794 1_555
Bi5_2 S8_2 2.856357 1_555
Bi5_2 S8_6 2.856357 1_455
Bi5_2 S16_2 2.894814 1_555
Bi5_2 S16_6 2.894814 1_455
Bi5_2 S7_2 3.061386 1_555
Bi5_3 S12_3 2.744794 1_555
Bi5_3 S8_3 2.856357 1_555
Bi5_3 S8_7 2.856357 1_455
Bi5_3 S16_3 2.894814 1_555
Bi5_3 S16_7 2.894814 1_455
Bi5_3 S7_3 3.061386 1_555
Bi5_4 S12_4 2.744794 1_555
Bi5_4 S8_4 2.856357 1_555
Bi5_4 S8_0 2.856357 1_555
Bi5_4 S16_4 2.894814 1_555
Bi5_4 S16_0 2.894814 1_555
Bi5_4 S7_4 3.061386 1_555
Bi5_5 S12_5 2.744794 1_555
Bi5_5 S8_5 2.856357 1_555
Bi5_5 S8_1 2.856357 1_555
Bi5_5 S16_5 2.894814 1_555
Bi5_5 S16_1 2.894814 1_555
Bi5_5 S7_5 3.061386 1_555
Bi5_6 S12_6 2.744794 1_555
Bi5_6 S8_6 2.856357 1_555
Bi5_6 S8_2 2.856357 1_555
Bi5_6 S16_6 2.894814 1_555
Bi5_6 S16_2 2.894814 1_555
Bi5_6 S7_6 3.061386 1_555
Bi5_7 S12_7 2.744794 1_555
Bi5_7 S8_7 2.856357 1_555
Bi5_7 S8_3 2.856357 1_555
Bi5_7 S16_7 2.894814 1_555
Bi5_7 S16_3 2.894814 1_555
Bi5_7 S7_7 3.061386 1_555
Bi6_0 S2_0 2.744794 1_555
Bi6_0 S13_0 2.856357 1_555
Bi6_0 S13_4 2.856357 1_555
Bi6_0 S6_0 2.894814 1_555
Bi6_0 S6_4 2.894814 1_555
Bi6_0 S11_0 3.061386 1_555
Bi6_1 S2_1 2.744794 1_555
Bi6_1 S13_1 2.856357 1_555
Bi6_1 S13_5 2.856357 1_555
Bi6_1 S6_1 2.894814 1_555
Bi6_1 S6_5 2.894814 1_555
Bi6_1 S11_1 3.061386 1_555
Bi6_2 S2_2 2.744794 1_555
Bi6_2 S13_2 2.856357 1_555
Bi6_2 S13_6 2.856357 1_555
Bi6_2 S6_2 2.894814 1_555
Bi6_2 S6_6 2.894814 1_555
Bi6_2 S11_2 3.061386 1_555
Bi6_3 S2_3 2.744794 1_555
Bi6_3 S13_3 2.856357 1_555
Bi6_3 S13_7 2.856357 1_555
Bi6_3 S6_3 2.894814 1_555
Bi6_3 S6_7 2.894814 1_555
Bi6_3 S11_3 3.061386 1_555
Bi6_4 S2_4 2.744794 1_555
Bi6_4 S13_4 2.856357 1_555
Bi6_4 S13_0 2.856357 1_655
Bi6_4 S6_4 2.894814 1_555
Bi6_4 S6_0 2.894814 1_655
Bi6_4 S11_4 3.061386 1_555
Bi6_5 S2_5 2.744794 1_555
Bi6_5 S13_5 2.856357 1_555
Bi6_5 S13_1 2.856357 1_655
Bi6_5 S6_5 2.894814 1_555
Bi6_5 S6_1 2.894814 1_655
Bi6_5 S11_5 3.061386 1_555
Bi6_6 S2_6 2.744794 1_555
Bi6_6 S13_6 2.856357 1_555
Bi6_6 S13_2 2.856357 1_655
Bi6_6 S6_6 2.894814 1_555
Bi6_6 S6_2 2.894814 1_655
Bi6_6 S11_6 3.061386 1_555
Bi6_7 S2_7 2.744794 1_555
Bi6_7 S13_7 2.856357 1_555
Bi6_7 S13_3 2.856357 1_655
Bi6_7 S6_7 2.894814 1_555
Bi6_7 S6_3 2.894814 1_655
Bi6_7 S11_7 3.061386 1_555
Bi7_0 S16_0 2.616262 1_555
Bi7_0 S0_1 2.843035 1_554
Bi7_0 S0_5 2.843035 1_554
Bi7_0 S12_0 2.934045 1_555
Bi7_0 S12_4 2.934045 1_555
Bi7_0 S11_1 3.490991 1_554
Bi7_1 S16_1 2.616262 1_555
Bi7_1 S0_0 2.843035 1_555
Bi7_1 S0_4 2.843035 1_555
Bi7_1 S12_1 2.934045 1_555
Bi7_1 S12_5 2.934045 1_555
Bi7_1 S11_0 3.490991 1_555
Bi7_2 S16_2 2.616262 1_555
Bi7_2 S0_3 2.843035 1_554
Bi7_2 S0_7 2.843035 1_554
Bi7_2 S12_2 2.934045 1_555
Bi7_2 S12_6 2.934045 1_555
Bi7_2 S11_3 3.490991 1_554
Bi7_3 S16_3 2.616262 1_555
Bi7_3 S0_2 2.843035 1_555
Bi7_3 S0_6 2.843035 1_555
Bi7_3 S12_3 2.934045 1_555
Bi7_3 S12_7 2.934045 1_555
Bi7_3 S11_2 3.490991 1_555
Bi7_4 S16_4 2.616262 1_555
Bi7_4 S0_5 2.843035 1_554
Bi7_4 S0_1 2.843035 1_654
Bi7_4 S12_4 2.934045 1_555
Bi7_4 S12_0 2.934045 1_655
Bi7_4 S11_5 3.490991 1_554
Bi7_5 S16_5 2.616262 1_555
Bi7_5 S0_4 2.843035 1_555
Bi7_5 S0_0 2.843035 1_655
Bi7_5 S12_5 2.934045 1_555
Bi7_5 S12_1 2.934045 1_655
Bi7_5 S11_4 3.490991 1_555
Bi7_6 S16_6 2.616262 1_555
Bi7_6 S0_7 2.843035 1_554
Bi7_6 S0_3 2.843035 1_654
Bi7_6 S12_6 2.934045 1_555
Bi7_6 S12_2 2.934045 1_655
Bi7_6 S11_7 3.490991 1_554
Bi7_7 S16_7 2.616262 1_555
Bi7_7 S0_6 2.843035 1_555
Bi7_7 S0_2 2.843035 1_655
Bi7_7 S12_7 2.934045 1_555
Bi7_7 S12_3 2.934045 1_655
Bi7_7 S11_6 3.490991 1_555
